Network_75R-040/scenario_40/case.raw
0,100.0,33,0,1,60.0
GRID OPTIMIZATION COMPETITION
INPUT DATA FILES ARE RAW ROP INL CON
35250,'Browns Ferry',500.0,3,1,1,1,1.01999998,0.0,1.1,0.9,1.1,0.9
35251,'Joseph M F~1',500.0,2,1,1,1,1.02000105,-0.588058,1.1,0.9,1.1,0.9
35252,'James H Mi~1',500.0,2,1,1,1,1.02000022,-1.075936,1.1,0.9,1.1,0.9
35253,'McWilliams',500.0,1,1,1,1,0.99797845,-10.816722,1.1,0.9,1.1,0.9
35254,'Barry',500.0,2,1,1,1,1.02000225,-17.116864,1.1,0.9,1.1,0.9
35255,'E C Gaston',500.0,2,1,1,1,1.02000046,3.163877,1.1,0.9,1.1,0.9
35256,'Greene Cou~1',500.0,1,1,1,1,1.01000965,-9.642556,1.1,0.9,1.1,0.9
35257,'Hillabee E~1',500.0,2,1,1,1,1.02000058,-4.071794,1.1,0.9,1.1,0.9
35258,'Theodore C~1',500.0,1,1,1,1,0.98574126,-20.360709,1.1,0.9,1.1,0.9
35259,'Decatur En~1',138.0,2,1,1,1,1.01999998,-1.79025,1.1,0.9,1.1,0.9
35260,'Morgan Ene~1',500.0,1,1,1,1,1.01843429,-0.60916,1.1,0.9,1.1,0.9
35261,'H Allen Fr~1',230.0,1,1,1,1,1.00682449,-0.795489,1.1,0.9,1.1,0.9
35262,'Colbert',500.0,1,1,1,1,1.0235014,2.106687,1.1,0.9,1.1,0.9
35263,'Calhoun En~1',138.0,1,1,1,1,0.98819023,-12.895235,1.1,0.9,1.1,0.9
35264,'E B Harris~1',230.0,2,1,1,1,1.0200007,-0.622032,1.1,0.9,1.1,0.9
35265,'Tenaska Li~1',500.0,2,1,1,1,1.02000058,-1.095663,1.1,0.9,1.1,0.9
35266,'Tenaska Ce~1',500.0,2,1,1,1,1.01996052,-1.117714,1.1,0.9,1.1,0.9
35267,'Bartletts ~1',500.0,1,1,1,1,1.01942265,-6.609499,1.1,0.9,1.1,0.9
35268,'Widows Creek',500.0,1,1,1,1,0.9910661,-10.206945,1.1,0.9,1.1,0.9
35269,'Gorgas',500.0,1,1,1,1,1.02261281,-0.139479,1.1,0.9,1.1,0.9
35270,'McIntosh (~1',500.0,1,1,1,1,1.0202682,-18.059558,1.1,0.9,1.1,0.9
35271,'General El~1',500.0,1,1,1,1,1.01488781,-4.430632,1.1,0.9,1.1,0.9
35272,'Lewis Smit~1',230.0,1,1,1,1,1.01738667,-3.546226,1.1,0.9,1.1,0.9
35273,'Washington~1',500.0,1,1,1,1,1.02025032,-18.026049,1.1,0.9,1.1,0.9
35274,'Georgia-Pa~2',138.0,2,1,1,1,1.02000201,-15.938164,1.1,0.9,1.1,0.9
35275,'Walter Bou~1',138.0,1,1,1,1,1.00972509,-4.759127,1.1,0.9,1.1,0.9
35276,'Gadsden',138.0,2,1,1,1,0.99911582,-14.15683,1.1,0.9,1.1,0.9
35277,'Harris Dam',138.0,2,1,1,1,1.02000046,-4.982451,1.1,0.9,1.1,0.9
35278,'Charles R ~1',500.0,1,1,1,1,1.01995027,-18.109314,1.1,0.9,1.1,0.9
35279,'Internatio~2',138.0,1,1,1,1,1.01737571,-4.556361,1.1,0.9,1.1,0.9
35280,'Bankhead Dam',138.0,1,1,1,1,0.98798376,-9.008515,1.1,0.9,1.1,0.9
35281,'Lee County',138.0,2,1,1,1,1.01385355,-10.026942,1.1,0.9,1.1,0.9
35282,'Martin Dam',500.0,1,1,1,1,1.01685417,-4.943162,1.1,0.9,1.1,0.9
35283,'AMEA Peaking',138.0,1,1,1,1,0.99627608,-3.346007,1.1,0.9,1.1,0.9
35284,'Alabama Ri~1',230.0,1,1,1,1,1.00931323,-15.686122,1.1,0.9,1.1,0.9
35285,'Holt Dam',69.0,2,1,1,1,1.01007867,-12.537332,1.1,0.9,1.1,0.9
35286,'Logan Mart~1',230.0,1,1,1,1,0.99704385,-3.623734,1.1,0.9,1.1,0.9
35287,'Georgia-Pa~1',138.0,1,1,1,1,1.01474643,-16.571012,1.1,0.9,1.1,0.9
35288,'Thurlow Dam',69.0,2,1,1,1,1.0200007,-5.135287,1.1,0.9,1.1,0.9
35289,'Internatio~1',138.0,1,1,1,1,1.0119971,-4.36448,1.1,0.9,1.1,0.9
35290,'Goat Rock',69.0,2,1,1,1,1.01624167,-9.775844,1.1,0.9,1.1,0.9
35292,'Mobile Ene~1',230.0,1,1,1,1,0.98935568,-21.642656,1.1,0.9,1.1,0.9
35293,'Wheeler Dam',500.0,1,1,1,1,1.02119339,1.072434,1.1,0.9,1.1,0.9
35294,'Millers Fe~1',138.0,2,1,1,1,1.02000153,-10.448106,1.1,0.9,1.1,0.9
35295,'Rock-Tenn ~1',138.0,2,1,1,1,1.00659597,-12.156348,1.1,0.9,1.1,0.9
35296,'Lay Dam',138.0,2,1,1,1,1.02000046,2.212073,1.1,0.9,1.1,0.9
35297,'Weiss Dam',138.0,2,1,1,1,1.0200001,-14.646606,1.1,0.9,1.1,0.9
35298,'Guntersville',138.0,2,1,1,1,1.01809454,-7.607236,1.1,0.9,1.1,0.9
35299,'Sloss Indu~1',69.0,1,1,1,1,1.00655794,-5.749907,1.1,0.9,1.1,0.9
35300,'Jordan Dam',138.0,2,1,1,1,1.0200007,-3.684305,1.1,0.9,1.1,0.9
35301,'Yates Dam',138.0,2,1,1,1,1.0200007,-5.245868,1.1,0.9,1.1,0.9
35302,'Mead Coate~1',138.0,1,1,1,1,0.99876976,-15.231382,1.1,0.9,1.1,0.9
35303,'H Neely He~1',138.0,2,1,1,1,1.00277042,-12.447297,1.1,0.9,1.1,0.9
35304,'Wilson Dam',500.0,1,1,1,1,1.02142465,1.932905,1.1,0.9,1.1,0.9
35305,'Jones Bluff',230.0,1,1,1,1,1.01784396,-4.920088,1.1,0.9,1.1,0.9
35306,'Mitchell Dam',230.0,1,1,1,1,1.02026045,0.105532,1.1,0.9,1.1,0.9
35307,'Fairfield ~1',138.0,1,1,1,1,1.00468254,-5.647962,1.1,0.9,1.1,0.9
35343,'Grand Gulf',230.0,1,1,1,1,0.98655474,-11.150315,1.1,0.9,1.1,0.9
35344,'Gerald And~1',138.0,2,1,1,1,1.02000177,4.910675,1.1,0.9,1.1,0.9
35345,'Victor J D~1',500.0,1,1,1,1,0.9960494,-17.474899,1.1,0.9,1.1,0.9
35346,'Baxter Wil~1',230.0,1,1,1,1,0.99415725,-9.173216,1.1,0.9,1.1,0.9
35347,'Red Hills ~1',500.0,1,1,1,1,1.02989697,-17.179266,1.1,0.9,1.1,0.9
35348,'Quantum Ch~1',500.0,2,1,1,1,1.0298928,-17.171611,1.1,0.9,1.1,0.9
35349,'R D Morrow',138.0,1,1,1,1,0.99640971,-32.619757,1.1,0.9,1.1,0.9
35350,'Batesville~1',500.0,1,1,1,1,1.01832759,-9.997329,1.1,0.9,1.1,0.9
35351,'TVA Southa~1',500.0,2,1,1,1,1.02000117,5.873815,1.1,0.9,1.1,0.9
35352,'Choctaw Co~1',500.0,1,1,1,1,1.02926385,-17.196407,1.1,0.9,1.1,0.9
35353,'Magnolia P~1',500.0,2,1,1,1,1.02000093,1.400549,1.1,0.9,1.1,0.9
35354,'Hinds Ener~1',138.0,2,1,1,1,1.02000606,-20.69089,1.1,0.9,1.1,0.9
35355,'Attala',230.0,2,1,1,1,1.02000344,-14.644424,1.1,0.9,1.1,0.9
35356,'Chevron Oil',138.0,2,1,1,1,1.02000284,-22.312082,1.1,0.9,1.1,0.9
35357,'Caledonia',230.0,1,1,1,1,0.97574711,-15.687993,1.1,0.9,1.1,0.9
35358,'Delta (MS)',138.0,1,1,1,1,0.99002713,-10.912527,1.1,0.9,1.1,0.9
35359,'Kemper Cou~1',500.0,1,1,1,1,1.02393568,-16.941523,1.1,0.9,1.1,0.9
35360,'Silver Creek',138.0,1,1,1,1,0.98338133,-37.075954,1.1,0.9,1.1,0.9
35361,'Crossroads~1',500.0,2,1,1,1,1.03479671,-13.023675,1.1,0.9,1.1,0.9
35362,'New Albany~1',230.0,1,1,1,1,0.99829841,-4.953017,1.1,0.9,1.1,0.9
35364,'Moselle',230.0,1,1,1,1,1.02395713,-26.689832,1.1,0.9,1.1,0.9
35365,'Internatio~3',138.0,1,1,1,1,0.98990989,-28.216985,1.1,0.9,1.1,0.9
35366,'Sylvarena',138.0,2,1,1,1,1.02000439,-24.538134,1.1,0.9,1.1,0.9
35367,'Weyerhaeus~1',69.0,2,1,1,1,1.02000165,-19.98799,1.1,0.9,1.1,0.9
35368,'Sweatt',138.0,2,1,1,1,1.02000225,-19.306047,1.1,0.9,1.1,0.9
35369,'Jack Watson',230.0,2,1,1,1,1.0200032,-24.083242,1.1,0.9,1.1,0.9
35370,'Yazoo',69.0,1,1,1,1,1.00907981,-22.39013,1.1,0.9,1.1,0.9
35371,'Georgia-Pa~3',138.0,2,1,1,1,0.98496586,-38.790167,1.1,0.9,1.1,0.9
35372,'Eaton',69.0,1,1,1,1,1.02173114,-32.178172,1.1,0.9,1.1,0.9
35373,'Leaf River~1',69.0,1,1,1,1,1.02496648,-30.824569,1.1,0.9,1.1,0.9
35374,'L L Wilkins',500.0,1,1,1,1,1.03476524,-13.020147,1.1,0.9,1.1,0.9
35375,'Henderson',69.0,1,1,1,1,1.00069165,-17.969128,1.1,0.9,1.1,0.9
35376,'Paulding',138.0,1,1,1,1,0.99385309,-23.948293,1.1,0.9,1.1,0.9
35424,'1001020100',69.0,1,1,1,1,1.01316559,-4.136372,1.1,0.9,1.1,0.9
35425,'1001020200',138.0,1,1,1,1,1.0137161,-3.518527,1.1,0.9,1.1,0.9
35426,'1001020300',500.0,1,1,1,1,1.01569927,-3.525302,1.1,0.9,1.1,0.9
35427,'1001020400',500.0,1,1,1,1,1.01544499,-3.592258,1.1,0.9,1.1,0.9
35428,'1001020500',500.0,1,1,1,1,1.01526546,-3.611807,1.1,0.9,1.1,0.9
35429,'1001020600',138.0,1,1,1,1,1.01301956,-3.680365,1.1,0.9,1.1,0.9
35430,'1001020700',138.0,1,1,1,1,1.01072836,-4.158867,1.1,0.9,1.1,0.9
35431,'1001020801',500.0,1,1,1,1,1.01626766,-3.650517,1.1,0.9,1.1,0.9
35432,'1001020802',500.0,1,1,1,1,1.01703036,-3.136131,1.1,0.9,1.1,0.9
35433,'1001020900',138.0,1,1,1,1,1.01473975,-2.308535,1.1,0.9,1.1,0.9
35434,'1001021000',69.0,1,1,1,1,1.01693666,-1.634708,1.1,0.9,1.1,0.9
35435,'1001021100',138.0,1,1,1,1,1.01926792,-3.692986,1.1,0.9,1.1,0.9
35436,'1003010100',69.0,1,1,1,1,1.01332557,-20.080645,1.1,0.9,1.1,0.9
35437,'1003010200',500.0,1,1,1,1,1.00959301,-17.963138,1.1,0.9,1.1,0.9
35438,'1003010300',500.0,1,1,1,1,1.00804687,-18.718849,1.1,0.9,1.1,0.9
35439,'1003010400',230.0,1,1,1,1,0.99991518,-21.327295,1.1,0.9,1.1,0.9
35440,'1003010500',69.0,1,1,1,1,1.02107716,-19.67574,1.1,0.9,1.1,0.9
35441,'1003010600',500.0,1,1,1,1,1.01040435,-18.269125,1.1,0.9,1.1,0.9
35442,'1003010701',500.0,1,1,1,1,1.00615346,-19.068672,1.1,0.9,1.1,0.9
35443,'1003010703',138.0,1,1,1,1,0.99272037,-22.714854,1.1,0.9,1.1,0.9
35444,'1003010704',69.0,1,1,1,1,1.01422834,-23.531837,1.1,0.9,1.1,0.9
35445,'1003010705',138.0,1,1,1,1,0.9966833,-22.420436,1.1,0.9,1.1,0.9
35446,'1003010800',69.0,1,1,1,1,1.01143909,-23.727901,1.1,0.9,1.1,0.9
35447,'1003010903',69.0,1,1,1,1,1.00815475,-23.94583,1.1,0.9,1.1,0.9
35448,'1003010904',138.0,1,1,1,1,1.00474906,-23.005628,1.1,0.9,1.1,0.9
35449,'1003010905',230.0,1,1,1,1,0.99162489,-22.470161,1.1,0.9,1.1,0.9
35450,'1003010906',69.0,1,1,1,1,1.00330627,-24.348839,1.1,0.9,1.1,0.9
35451,'1003011000',69.0,1,1,1,1,0.99698257,-24.883409,1.1,0.9,1.1,0.9
35452,'1003011101',230.0,1,1,1,1,0.9921692,-22.451194,1.1,0.9,1.1,0.9
35453,'1003011102',69.0,1,1,1,1,1.00320816,-24.624985,1.1,0.9,1.1,0.9
35454,'1003011201',69.0,1,1,1,1,1.01279676,-23.453787,1.1,0.9,1.1,0.9
35455,'1003011202',230.0,1,1,1,1,0.99295688,-22.350532,1.1,0.9,1.1,0.9
35456,'1003011300',69.0,1,1,1,1,0.99540919,-25.36471,1.1,0.9,1.1,0.9
35457,'1003011401',69.0,1,1,1,1,0.99085546,-25.94344,1.1,0.9,1.1,0.9
35458,'1003011403',69.0,1,1,1,1,0.9967128,-27.650356,1.1,0.9,1.1,0.9
35459,'1003011405',69.0,1,1,1,1,0.99591213,-29.068561,1.1,0.9,1.1,0.9
35460,'1003011406',69.0,1,1,1,1,0.99831736,-28.315408,1.1,0.9,1.1,0.9
35461,'1003011407',69.0,1,1,1,1,0.99355191,-27.727848,1.1,0.9,1.1,0.9
35462,'1003011408',69.0,1,1,1,1,0.99516684,-27.111306,1.1,0.9,1.1,0.9
35463,'1003011501',230.0,1,1,1,1,0.98744005,-22.803649,1.1,0.9,1.1,0.9
35464,'1003011502',138.0,1,1,1,1,0.98753464,-24.117589,1.1,0.9,1.1,0.9
35465,'1003011601',69.0,1,1,1,1,0.98674482,-25.785276,1.1,0.9,1.1,0.9
35466,'1003011602',69.0,1,1,1,1,0.98084581,-26.28991,1.1,0.9,1.1,0.9
35467,'1005950100',230.0,1,1,1,1,0.98261988,-4.82715,1.1,0.9,1.1,0.9
35468,'1005950200',69.0,1,1,1,1,0.99848825,-10.191395,1.1,0.9,1.1,0.9
35469,'1005950300',138.0,1,1,1,1,0.97304177,-11.492411,1.1,0.9,1.1,0.9
35470,'1005950400',69.0,1,1,1,1,0.99376601,-11.77316,1.1,0.9,1.1,0.9
35471,'1005950500',138.0,1,1,1,1,0.99039644,-7.70368,1.1,0.9,1.1,0.9
35472,'1005950600',138.0,1,1,1,1,0.99680853,-7.090078,1.1,0.9,1.1,0.9
35473,'1005950700',230.0,1,1,1,1,0.98128366,-5.567686,1.1,0.9,1.1,0.9
35474,'1005950800',69.0,1,1,1,1,1.01385772,-8.937484,1.1,0.9,1.1,0.9
35475,'1005950900',138.0,1,1,1,1,0.9947561,-6.945089,1.1,0.9,1.1,0.9
35476,'1007010001',69.0,1,1,1,1,0.9700141,-10.831928,1.1,0.9,1.1,0.9
35477,'1007010002',69.0,1,1,1,1,0.97828197,-10.127357,1.1,0.9,1.1,0.9
35478,'1007010003',69.0,1,1,1,1,0.97411472,-9.006929,1.1,0.9,1.1,0.9
35479,'1007010004',138.0,1,1,1,1,1.00371814,-7.575134,1.1,0.9,1.1,0.9
35480,'1009050101',138.0,1,1,1,1,0.9801634,-8.248069,1.1,0.9,1.1,0.9
35481,'1009050102',138.0,1,1,1,1,0.98270142,-8.335623,1.1,0.9,1.1,0.9
35482,'1009050200',138.0,1,1,1,1,0.98798019,-7.894571,1.1,0.9,1.1,0.9
35483,'1009050300',138.0,1,1,1,1,0.99223047,-9.637664,1.1,0.9,1.1,0.9
35484,'1009050400',138.0,1,1,1,1,0.99655473,-8.552361,1.1,0.9,1.1,0.9
35485,'1009050500',138.0,1,1,1,1,0.99318832,-7.43283,1.1,0.9,1.1,0.9
35486,'1009050601',138.0,1,1,1,1,1.00805688,-5.168581,1.1,0.9,1.1,0.9
35487,'1009050602',138.0,1,1,1,1,1.00305521,-5.694231,1.1,0.9,1.1,0.9
35488,'1009050700',69.0,1,1,1,1,1.00669205,-7.699963,1.1,0.9,1.1,0.9
35489,'1011952100',69.0,1,1,1,1,1.00195742,-9.946349,1.1,0.9,1.1,0.9
35490,'1011952200',138.0,1,1,1,1,0.98407823,-8.994603,1.1,0.9,1.1,0.9
35491,'1011952500',138.0,1,1,1,1,0.98866272,-8.638311,1.1,0.9,1.1,0.9
35492,'1013952700',138.0,1,1,1,1,0.99669665,-8.365696,1.1,0.9,1.1,0.9
35493,'1013952800',138.0,1,1,1,1,0.99532968,-8.690791,1.1,0.9,1.1,0.9
35494,'1013952900',138.0,1,1,1,1,0.99486893,-8.841426,1.1,0.9,1.1,0.9
35495,'1013953000',138.0,1,1,1,1,0.99908155,-8.010085,1.1,0.9,1.1,0.9
35496,'1013953100',138.0,1,1,1,1,0.99294329,-9.33969,1.1,0.9,1.1,0.9
35497,'1013953200',69.0,1,1,1,1,1.00300872,-10.305448,1.1,0.9,1.1,0.9
35498,'1013953300',138.0,1,1,1,1,0.99052209,-10.211718,1.1,0.9,1.1,0.9
35499,'1013953400',138.0,1,1,1,1,0.99206746,-11.547927,1.1,0.9,1.1,0.9
35500,'1013953500',69.0,1,1,1,1,1.00697291,-11.697096,1.1,0.9,1.1,0.9
35501,'1015000200',69.0,1,1,1,1,1.00536776,-15.226493,1.1,0.9,1.1,0.9
35502,'1015000300',69.0,1,1,1,1,1.00490677,-15.246015,1.1,0.9,1.1,0.9
35503,'1015000400',138.0,1,1,1,1,0.98256457,-14.626092,1.1,0.9,1.1,0.9
35504,'1015000500',138.0,1,1,1,1,0.98274589,-14.566306,1.1,0.9,1.1,0.9
35505,'1015000600',138.0,1,1,1,1,0.98321283,-14.307353,1.1,0.9,1.1,0.9
35506,'1015000700',138.0,1,1,1,1,0.98490644,-14.506944,1.1,0.9,1.1,0.9
35507,'1015000800',69.0,1,1,1,1,1.00355148,-14.918289,1.1,0.9,1.1,0.9
35508,'1015000900',69.0,1,1,1,1,1.00245416,-14.712933,1.1,0.9,1.1,0.9
35509,'1015001000',230.0,1,1,1,1,0.98167455,-11.148384,1.1,0.9,1.1,0.9
35510,'1015001100',138.0,1,1,1,1,0.9884001,-13.517021,1.1,0.9,1.1,0.9
35511,'1015001201',138.0,1,1,1,1,0.9851402,-14.05214,1.1,0.9,1.1,0.9
35512,'1015001202',138.0,1,1,1,1,0.98537296,-13.821171,1.1,0.9,1.1,0.9
35513,'1015001300',69.0,1,1,1,1,1.00612807,-14.636906,1.1,0.9,1.1,0.9
35514,'1015001400',138.0,1,1,1,1,0.99020731,-12.94733,1.1,0.9,1.1,0.9
35515,'1015001500',138.0,1,1,1,1,0.98994565,-12.638899,1.1,0.9,1.1,0.9
35516,'1015001600',138.0,1,1,1,1,0.98085201,-14.854055,1.1,0.9,1.1,0.9
35517,'1015001700',138.0,1,1,1,1,0.98044449,-14.91131,1.1,0.9,1.1,0.9
35518,'1015001800',138.0,1,1,1,1,1.00000024,-16.452191,1.1,0.9,1.1,0.9
35519,'1015002000',69.0,1,1,1,1,1.00252235,-17.038906,1.1,0.9,1.1,0.9
35520,'1015002101',69.0,1,1,1,1,1.01390994,-17.181047,1.1,0.9,1.1,0.9
35521,'1015002102',69.0,1,1,1,1,1.01320696,-17.275599,1.1,0.9,1.1,0.9
35522,'1015002103',138.0,1,1,1,1,0.99946356,-16.5098,1.1,0.9,1.1,0.9
35523,'1015002200',69.0,1,1,1,1,1.00490129,-18.130667,1.1,0.9,1.1,0.9
35524,'1015002300',138.0,1,1,1,1,1.00683033,-16.46065,1.1,0.9,1.1,0.9
35525,'1015002400',69.0,1,1,1,1,1.01313782,-17.047379,1.1,0.9,1.1,0.9
35526,'1015002501',138.0,1,1,1,1,0.98772246,-13.166538,1.1,0.9,1.1,0.9
35527,'1015002502',69.0,1,1,1,1,1.01489711,-16.316342,1.1,0.9,1.1,0.9
35528,'1015002600',138.0,1,1,1,1,1.00103164,-12.539275,1.1,0.9,1.1,0.9
35529,'1015981901',138.0,1,1,1,1,0.99034661,-12.917849,1.1,0.9,1.1,0.9
35530,'1015981902',138.0,1,1,1,1,0.99564648,-12.714062,1.1,0.9,1.1,0.9
35532,'1017953900',138.0,1,1,1,1,1.00928819,-8.265606,1.1,0.9,1.1,0.9
35533,'1017954000',138.0,1,1,1,1,0.99448138,-9.207704,1.1,0.9,1.1,0.9
35534,'1017954200',69.0,1,1,1,1,1.00949967,-8.517355,1.1,0.9,1.1,0.9
...
0 / END OF BUS DATA BEGIN LOAD DATA
35258,'1',1,1,1,50.0,11.0,0.0,0.0,0.0,0.0,1,1,0
35282,'S',1,1,1,140.0,40.0,0.0,0.0,0.0,0.0,1,1,0
35345,'1',1,1,1,143.4,22.0,0.0,0.0,0.0,0.0,1,1,0
35424,'1',1,1,1,3.27,0.97,0.0,0.0,0.0,0.0,1,1,0
35425,'1',1,1,1,2.84,0.62,0.0,0.0,0.0,0.0,1,1,0
35427,'1',1,1,1,5.96,1.26,0.0,0.0,0.0,0.0,1,1,0
35428,'1',1,1,1,18.08,4.77,0.0,0.0,0.0,0.0,1,1,0
35431,'1',1,1,1,28.62,5.81,0.0,0.0,0.0,0.0,1,1,0
35432,'1',1,1,1,15.4,4.07,0.0,0.0,0.0,0.0,1,1,0
35434,'1',1,1,1,3.72,1.14,0.0,0.0,0.0,0.0,1,1,0
35435,'1',1,1,1,4.01,0.88,0.0,0.0,0.0,0.0,1,1,0
35436,'1',1,1,1,9.63,2.84,0.0,0.0,0.0,0.0,1,1,0
35437,'1',1,1,1,6.62,1.38,0.0,0.0,0.0,0.0,1,1,0
35438,'1',1,1,1,127.46,37.0,0.0,0.0,0.0,0.0,1,1,0
35439,'1',1,1,1,10.85,2.32,0.0,0.0,0.0,0.0,1,1,0
35440,'1',1,1,1,13.55,4.09,0.0,0.0,0.0,0.0,1,1,0
35442,'1',1,1,1,12.29,3.8,0.0,0.0,0.0,0.0,1,1,0
35444,'1',1,1,1,6.55,1.69,0.0,0.0,0.0,0.0,1,1,0
35446,'1',1,1,1,15.2,4.65,0.0,0.0,0.0,0.0,1,1,0
35447,'1',1,1,1,10.33,2.64,0.0,0.0,0.0,0.0,1,1,0
35448,'1',1,1,1,11.42,2.43,0.0,0.0,0.0,0.0,1,1,0
35450,'1',1,1,1,5.64,1.48,0.0,0.0,0.0,0.0,1,1,0
35451,'1',1,1,1,8.22,1.922,0.0,0.0,0.0,0.0,1,1,0
35453,'1',1,1,1,6.69,2.04,0.0,0.0,0.0,0.0,1,1,0
35454,'1',1,1,1,6.65,2.02,0.0,0.0,0.0,0.0,1,1,0
35456,'1',1,1,1,13.47,2.88,0.0,0.0,0.0,0.0,1,1,0
35457,'1',1,1,1,25.2,5.29,0.0,0.0,0.0,0.0,1,1,0
35458,'1',1,1,1,15.27,0.0,0.0,0.0,0.0,0.0,1,1,0
35459,'1',1,1,1,6.2,-1.0,0.0,0.0,0.0,0.0,1,1,0
35460,'1',1,1,1,7.68,-2.03,0.0,0.0,0.0,0.0,1,1,0
35461,'1',1,1,1,6.46,1.325,0.0,0.0,0.0,0.0,1,1,0
35462,'1',1,1,1,0.52,0.11,0.0,0.0,0.0,0.0,1,1,0
35465,'1',1,1,1,11.51,2.52,0.0,0.0,0.0,0.0,1,1,0
35466,'1',1,1,1,7.56,1.539,0.0,0.0,0.0,0.0,1,1,0
35467,'1',1,1,1,6.56,1.516,0.0,0.0,0.0,0.0,1,1,0
35468,'1',1,1,1,9.77,1.899,0.0,0.0,0.0,0.0,1,1,0
35470,'1',1,1,1,5.2,1.072,0.0,0.0,0.0,0.0,1,1,0
35472,'1',1,1,1,4.5,0.904,0.0,0.0,0.0,0.0,1,1,0
35473,'1',1,1,1,7.12,1.46,0.0,0.0,0.0,0.0,1,1,0
35474,'1',1,1,1,3.44,1.01,0.0,0.0,0.0,0.0,1,1,0
35476,'1',1,1,1,7.65,1.63,0.0,0.0,0.0,0.0,1,1,0
35477,'1',1,1,1,8.46,1.961,0.0,0.0,0.0,0.0,1,1,0
35478,'1',1,1,1,20.07,3.998,0.0,0.0,0.0,0.0,1,1,0
35482,'1',1,1,1,4.58,0.934,0.0,0.0,0.0,0.0,1,1,0
35485,'1',1,1,1,15.09,3.2,0.0,0.0,0.0,0.0,1,1,0
35488,'1',1,1,1,10.99,2.89,0.0,0.0,0.0,0.0,1,1,0
35489,'1',1,1,1,1.95,0.42,0.0,0.0,0.0,0.0,1,1,0
35493,'1',1,1,1,4.11,0.87,0.0,0.0,0.0,0.0,1,1,0
35494,'1',1,1,1,10.13,2.16,0.0,0.0,0.0,0.0,1,1,0
35495,'1',1,1,1,1.77,0.53,0.0,0.0,0.0,0.0,1,1,0
35496,'1',1,1,1,4.14,0.88,0.0,0.0,0.0,0.0,1,1,0
35497,'1',1,1,1,8.09,1.77,0.0,0.0,0.0,0.0,1,1,0
35499,'1',1,1,1,3.76,0.881,0.0,0.0,0.0,0.0,1,1,0
35500,'1',1,1,1,1.7,0.45,0.0,0.0,0.0,0.0,1,1,0
35501,'1',1,1,1,5.07,0.0,0.0,0.0,0.0,0.0,1,1,0
35502,'1',1,1,1,4.67,0.0,0.0,0.0,0.0,0.0,1,1,0
35504,'1',1,1,1,8.56,0.0,0.0,0.0,0.0,0.0,1,1,0
35507,'1',1,1,1,21.95,0.0,0.0,0.0,0.0,0.0,1,1,0
35508,'1',1,1,1,5.83,0.0,0.0,0.0,0.0,0.0,1,1,0
35510,'1',1,1,1,52.35,0.0,0.0,0.0,0.0,0.0,1,1,0
35511,'1',1,1,1,8.97,0.0,0.0,0.0,0.0,0.0,1,1,0
35513,'1',1,1,1,5.54,0.0,0.0,0.0,0.0,0.0,1,1,0
35514,'1',1,1,1,2.33,0.2,0.0,0.0,0.0,0.0,1,1,0
35515,'1',1,1,1,25.96,0.0,0.0,0.0,0.0,0.0,1,1,0
35517,'1',1,1,1,10.29,0.0,0.0,0.0,0.0,0.0,1,1,0
35519,'1',1,1,1,11.51,0.0,0.0,0.0,0.0,0.0,1,1,0
35520,'1',1,1,1,6.59,0.0,0.0,0.0,0.0,0.0,1,1,0
35521,'1',1,1,1,4.12,0.0,0.0,0.0,0.0,0.0,1,1,0
35523,'1',1,1,1,6.06,-2.0,0.0,0.0,0.0,0.0,1,1,0
35525,'1',1,1,1,5.46,0.0,0.0,0.0,0.0,0.0,1,1,0
35526,'1',1,1,1,8.77,2.0,0.0,0.0,0.0,0.0,1,1,0
35527,'1',1,1,1,6.59,0.0,0.0,0.0,0.0,0.0,1,1,0
35528,'1',1,1,1,5.57,0.0,0.0,0.0,0.0,0.0,1,1,0
35529,'1',1,1,1,6.75,2.2,0.0,0.0,0.0,0.0,1,1,0
35530,'1',1,1,1,0.0,0.0,0.0,0.0,0.0,0.0,1,1,0
35532,'1',1,1,1,4.44,1.19,0.0,0.0,0.0,0.0,1,1,0
35533,'1',1,1,1,20.83,4.718,0.0,0.0,0.0,0.0,1,1,0
35534,'1',1,1,1,4.52,1.2,0.0,0.0,0.0,0.0,1,1,0
35536,'1',1,1,1,1.86,0.48,0.0,0.0,0.0,0.0,1,1,0
35539,'1',1,1,1,13.23,3.99,0.0,0.0,0.0,0.0,1,1,0
35540,'1',1,1,1,4.24,0.0,0.0,0.0,0.0,0.0,1,1,0
35541,'1',1,1,1,4.9,1.141,0.0,0.0,0.0,0.0,1,1,0
35542,'1',1,1,1,15.05,3.454,0.0,0.0,0.0,0.0,1,1,0
35543,'1',1,1,1,19.88,-20.0,0.0,0.0,0.0,0.0,1,1,0
35544,'1',1,1,1,9.98,2.305,0.0,0.0,0.0,0.0,1,1,0
35545,'1',1,1,1,6.67,0.0,0.0,0.0,0.0,0.0,1,1,0
35546,'1',1,1,1,10.67,3.15,0.0,0.0,0.0,0.0,1,1,0
35547,'1',1,1,1,24.62,5.23,0.0,0.0,0.0,0.0,1,1,0
35548,'1',1,1,1,4.71,1.02,0.0,0.0,0.0,0.0,1,1,0
35549,'1',1,1,1,9.51,2.44,0.0,0.0,0.0,0.0,1,1,0
35550,'1',1,1,1,16.73,4.37,0.0,0.0,0.0,0.0,1,1,0
35552,'1',1,1,1,8.59,1.81,0.0,0.0,0.0,0.0,1,1,0
35554,'1',1,1,1,7.39,1.9,0.0,0.0,0.0,0.0,1,1,0
35555,'1',1,1,1,59.83,12.48,0.0,0.0,0.0,0.0,1,1,0
35556,'1',1,1,1,9.54,2.0,0.0,0.0,0.0,0.0,1,1,0
35557,'1',1,1,1,13.64,4.01,0.0,0.0,0.0,0.0,1,1,0
35560,'1',1,1,1,1.21,0.32,0.0,0.0,0.0,0.0,1,1,0
35561,'1',1,1,1,26.98,6.066,0.0,0.0,0.0,0.0,1,1,0
35563,'1',1,1,1,15.37,3.91,0.0,0.0,0.0,0.0,1,1,0
35564,'1',1,1,1,5.76,1.22,0.0,0.0,0.0,0.0,1,1,0
35566,'1',1,1,1,2.44,0.52,0.0,0.0,0.0,0.0,1,1,0
35567,'1',1,1,1,2.09,0.45,0.0,0.0,0.0,0.0,1,1,0
35570,'1',1,1,1,3.51,1.07,0.0,0.0,0.0,0.0,1,1,0
35571,'1',1,1,1,4.34,1.13,0.0,0.0,0.0,0.0,1,1,0
35572,'1',1,1,1,6.48,0.0,0.0,0.0,0.0,0.0,1,1,0
35573,'1',1,1,1,15.47,0.0,0.0,0.0,0.0,0.0,1,1,0
35574,'1',1,1,1,21.22,0.0,0.0,0.0,0.0,0.0,1,1,0
35575,'1',1,1,1,5.64,1.294,0.0,0.0,0.0,0.0,1,1,0
35577,'1',1,1,1,10.83,2.7,0.0,0.0,0.0,0.0,1,1,0
35578,'1',1,1,1,7.15,1.654,0.0,0.0,0.0,0.0,1,1,0
35579,'1',1,1,1,13.24,2.65,0.0,0.0,0.0,0.0,1,1,0
35580,'S',1,1,1,400.0,100.0,0.0,0.0,0.0,0.0,1,1,0
35581,'1',1,1,1,2.33,0.61,0.0,0.0,0.0,0.0,1,1,0
35582,'1',1,1,1,7.11,1.409,0.0,0.0,0.0,0.0,1,1,0
35583,'1',1,1,1,3.65,0.842,0.0,0.0,0.0,0.0,1,1,0
35584,'1',1,1,1,4.35,0.996,0.0,0.0,0.0,0.0,1,1,0
35585,'1',1,1,1,5.81,1.172,0.0,0.0,0.0,0.0,1,1,0
35586,'1',1,1,1,3.77,0.81,0.0,0.0,0.0,0.0,1,1,0
35588,'1',1,1,1,12.07,2.811,0.0,0.0,0.0,0.0,1,1,0
35590,'1',1,1,1,12.51,2.69,0.0,0.0,0.0,0.0,1,1,0
35591,'1',1,1,1,2.8,0.61,0.0,0.0,0.0,0.0,1,1,0
35593,'1',1,1,1,4.1,1.08,0.0,0.0,0.0,0.0,1,1,0
35595,'1',1,1,1,13.02,3.9,0.0,0.0,0.0,0.0,1,1,0
35596,'1',1,1,1,171.29,51.5,0.0,0.0,0.0,0.0,1,1,0
35597,'1',1,1,1,14.53,3.76,0.0,0.0,0.0,0.0,1,1,0
35598,'1',1,1,1,13.41,3.46,0.0,0.0,0.0,0.0,1,1,0
35599,'1',1,1,1,5.64,1.22,0.0,0.0,0.0,0.0,1,1,0
35600,'1',1,1,1,6.09,1.84,0.0,0.0,0.0,0.0,1,1,0
35601,'1',1,1,1,12.11,3.15,0.0,0.0,0.0,0.0,1,1,0
35602,'1',1,1,1,39.17,8.4,0.0,0.0,0.0,0.0,1,1,0
35603,'1',1,1,1,23.19,6.63,0.0,0.0,0.0,0.0,1,1,0
35604,'1',1,1,1,2.18,0.47,0.0,0.0,0.0,0.0,1,1,0
35605,'1',1,1,1,2.09,0.54,0.0,0.0,0.0,0.0,1,1,0
35608,'1',1,1,1,8.56,1.84,0.0,0.0,0.0,0.0,1,1,0
35609,'1',1,1,1,10.82,2.152,0.0,0.0,0.0,0.0,1,1,0
35610,'1',1,1,1,7.08,1.82,0.0,0.0,0.0,0.0,1,1,0
35611,'1',1,1,1,10.74,2.76,0.0,0.0,0.0,0.0,1,1,0
35612,'1',1,1,1,4.99,1.06,0.0,0.0,0.0,0.0,1,1,0
35616,'1',1,1,1,11.17,2.35,0.0,0.0,0.0,0.0,1,1,0
35617,'1',1,1,1,3.53,0.92,0.0,0.0,0.0,0.0,1,1,0
35618,'1',1,1,1,4.89,1.3,0.0,0.0,0.0,0.0,1,1,0
35620,'1',1,1,1,1.84,0.49,0.0,0.0,0.0,0.0,1,1,0
35622,'1',1,1,1,14.47,4.23,0.0,0.0,0.0,0.0,1,1,0
35623,'1',1,1,1,2.76,0.61,0.0,0.0,0.0,0.0,1,1,0
35624,'1',1,1,1,2.23,0.49,0.0,0.0,0.0,0.0,1,1,0
35627,'1',1,1,1,2.3,0.49,0.0,0.0,0.0,0.0,1,1,0
35628,'1',1,1,1,4.06,0.87,0.0,0.0,0.0,0.0,1,1,0
35629,'1',1,1,1,6.44,1.279,0.0,0.0,0.0,0.0,1,1,0
35630,'1',1,1,1,2.28,0.7,0.0,0.0,0.0,0.0,1,1,0
35631,'1',1,1,1,2.68,0.57,0.0,0.0,0.0,0.0,1,1,0
35634,'1',1,1,1,12.16,3.19,0.0,0.0,0.0,0.0,1,1,0
35637,'1',1,1,1,5.09,1.11,0.0,0.0,0.0,0.0,1,1,0
35639,'1',1,1,1,10.28,3.16,0.0,0.0,0.0,0.0,1,1,0
35640,'1',1,1,1,31.23,6.61,0.0,0.0,0.0,0.0,1,1,0
35642,'1',1,1,1,10.17,2.29,0.0,0.0,0.0,0.0,1,1,0
35643,'1',1,1,1,2.79,0.84,0.0,0.0,0.0,0.0,1,1,0
35645,'1',1,1,1,5.98,1.79,0.0,0.0,0.0,0.0,1,1,0
35647,'1',1,1,1,9.01,2.74,0.0,0.0,0.0,0.0,1,1,0
35648,'1',1,1,1,2.73,0.6,0.0,0.0,0.0,0.0,1,1,0
35649,'1',1,1,1,4.85,1.29,0.0,0.0,0.0,0.0,1,1,0
35650,'S',1,1,1,140.0,40.0,0.0,0.0,0.0,0.0,1,1,0
35653,'1',1,1,1,3.56,0.77,0.0,0.0,0.0,0.0,1,1,0
35654,'1',1,1,1,9.51,2.01,0.0,0.0,0.0,0.0,1,1,0
35655,'1',1,1,1,4.24,0.865,0.0,0.0,0.0,0.0,1,1,0
35656,'1',1,1,1,7.49,1.509,0.0,0.0,0.0,0.0,1,1,0
35657,'1',1,1,1,4.06,0.88,0.0,0.0,0.0,0.0,1,1,0
35659,'1',1,1,1,6.47,1.302,0.0,0.0,0.0,0.0,1,1,0
35661,'1',1,1,1,4.58,0.98,0.0,0.0,0.0,0.0,1,1,0
35663,'1',1,1,1,23.85,4.626,0.0,0.0,0.0,0.0,1,1,0
35665,'1',1,1,1,4.85,1.46,0.0,0.0,0.0,0.0,1,1,0
35666,'1',1,1,1,3.25,0.72,0.0,0.0,0.0,0.0,1,1,0
35667,'1',1,1,1,7.89,2.06,0.0,0.0,0.0,0.0,1,1,0
35668,'1',1,1,1,8.44,2.23,0.0,0.0,0.0,0.0,1,1,0
35670,'1',1,1,1,7.03,1.5,0.0,0.0,0.0,0.0,1,1,0
35671,'1',1,1,1,5.68,1.43,0.0,0.0,0.0,0.0,1,1,0
35672,'1',1,1,1,2.6,0.78,0.0,0.0,0.0,0.0,1,1,0
35674,'1',1,1,1,3.73,1.14,0.0,0.0,0.0,0.0,1,1,0
35675,'1',1,1,1,2.42,0.52,0.0,0.0,0.0,0.0,1,1,0
35676,'1',1,1,1,3.76,0.81,0.0,0.0,0.0,0.0,1,1,0
35677,'1',1,1,1,2.86,0.84,0.0,0.0,0.0,0.0,1,1,0
35678,'1',1,1,1,26.11,5.41,0.0,0.0,0.0,0.0,1,1,0
35680,'1',1,1,1,4.48,0.97,0.0,0.0,0.0,0.0,1,1,0
35682,'1',1,1,1,17.83,3.569,0.0,0.0,0.0,0.0,1,1,0
35683,'1',1,1,1,6.86,1.47,0.0,0.0,0.0,0.0,1,1,0
35684,'1',1,1,1,7.72,1.585,0.0,0.0,0.0,0.0,1,1,0
35685,'1',1,1,1,11.13,2.275,0.0,0.0,0.0,0.0,1,1,0
35686,'1',1,1,1,21.26,4.886,0.0,0.0,0.0,0.0,1,1,0
35688,'1',1,1,1,4.95,1.134,0.0,0.0,0.0,0.0,1,1,0
35689,'1',1,1,1,11.1,2.512,0.0,0.0,0.0,0.0,1,1,0
35692,'1',1,1,1,6.89,1.48,0.0,0.0,0.0,0.0,1,1,0
35693,'1',1,1,1,12.2,3.29,0.0,0.0,0.0,0.0,1,1,0
35694,'1',1,1,1,6.41,1.72,0.0,0.0,0.0,0.0,1,1,0
35695,'1',1,1,1,2.98,0.91,0.0,0.0,0.0,0.0,1,1,0
35697,'1',1,1,1,13.9,3.54,0.0,0.0,0.0,0.0,1,1,0
35698,'1',1,1,1,14.25,3.73,0.0,0.0,0.0,0.0,1,1,0
35699,'1',1,1,1,7.78,2.33,0.0,0.0,0.0,0.0,1,1,0
35700,'1',1,1,1,8.64,1.83,0.0,0.0,0.0,0.0,1,1,0
35701,'1',1,1,1,15.53,4.63,0.0,0.0,0.0,0.0,1,1,0
35702,'1',1,1,1,8.19,1.78,0.0,0.0,0.0,0.0,1,1,0
35703,'1',1,1,1,4.47,1.33,0.0,0.0,0.0,0.0,1,1,0
...
0 / END OF LOAD DATA BEGIN FIXED SHUNT DATA
0 / END OF FIXED SHUNT DATA BEGIN GENERATOR DATA
35250,'2',1000.006,103.852,455.3,-455.3,1.02,0,100.0,0.0,1.0,0.0,0.0,1.0,1,100.0,1000.01,750.0,1,1.0,0,1.0,0,1.0,0,1.0,0,1.0
35250,'3',1000.006,103.852,470.3,-470.3,1.02,0,100.0,0.0,1.0,0.0,0.0,1.0,1,100.0,1000.01,750.0,1,1.0,0,1.0,0,1.0,0,1.0,0,1.0
35251,'1',888.2,28.332,550.5,-296.1,1.02,0,100.0,0.0,1.0,0.0,0.0,1.0,1,100.0,888.2,250.0,1,1.0,0,1.0,0,1.0,0,1.0,0,1.0
35251,'2',888.2,28.332,550.5,-296.1,1.02,0,100.0,0.0,1.0,0.0,0.0,1.0,1,100.0,888.2,250.0,1,1.0,0,1.0,0,1.0,0,1.0,0,1.0
35252,'1',611.0,111.54,437.2,-235.2,1.02,0,100.0,0.0,1.0,0.0,0.0,1.0,1,100.0,611.0,300.0,1,1.0,0,1.0,0,1.0,0,1.0,0,1.0
35252,'2',611.0,111.54,437.2,-235.2,1.02,0,100.0,0.0,1.0,0.0,0.0,1.0,1,100.0,611.0,300.0,1,1.0,0,1.0,0,1.0,0,1.0,0,1.0
35252,'3',611.0,111.54,437.2,-235.2,1.02,0,100.0,0.0,1.0,0.0,0.0,1.0,1,100.0,611.0,300.0,1,1.0,0,1.0,0,1.0,0,1.0,0,1.0
35254,'11',403.7,59.843,250.2,-134.6,1.02,0,100.0,0.0,1.0,0.0,0.0,1.0,1,100.0,403.7,200.0,1,1.0,0,1.0,0,1.0,0,1.0,0,1.0
35254,'3',104.0,59.843,105.4,-56.7,1.02,0,100.0,0.0,1.0,0.0,0.0,1.0,1,100.0,170.1,104.0,1,1.0,0,1.0,0,1.0,0,1.0,0,1.0
35254,'4',104.0,59.843,105.4,-56.7,1.02,0,100.0,0.0,1.0,0.0,0.0,1.0,1,100.0,170.1,104.0,1,1.0,0,1.0,0,1.0,0,1.0,0,1.0
35254,'5',87.0,59.843,105.4,-56.7,1.02,0,100.0,0.0,1.0,0.0,0.0,1.0,1,100.0,170.1,87.0,1,1.0,0,1.0,0,1.0,0,1.0,0,1.0
35254,'6',79.0,59.843,105.4,-56.7,1.02,0,100.0,0.0,1.0,0.0,0.0,1.0,1,100.0,170.1,79.0,1,1.0,0,1.0,0,1.0,0,1.0,0,1.0
35254,'7',788.8,59.843,488.9,-262.9,1.02,0,100.0,0.0,1.0,0.0,0.0,1.0,1,100.0,788.8,465.0,1,1.0,0,1.0,0,1.0,0,1.0,0,1.0
35255,'2',952.0,23.212,590.0,-317.3,1.02,0,100.0,0.0,1.0,0.0,0.0,1.0,1,100.0,952.0,700.0,1,1.0,0,1.0,0,1.0,0,1.0,0,1.0
35255,'4',272.0,23.212,168.6,-90.7,1.02,0,100.0,0.0,1.0,0.0,0.0,1.0,1,100.0,272.0,70.0,1,1.0,0,1.0,0,1.0,0,1.0,0,1.0
35255,'5',272.0,23.212,168.6,-90.7,1.02,0,100.0,0.0,1.0,0.0,0.0,1.0,1,100.0,272.0,70.0,1,1.0,0,1.0,0,1.0,0,1.0,0,1.0
35255,'6',272.0,23.212,168.6,-90.7,1.02,0,100.0,0.0,1.0,0.0,0.0,1.0,1,100.0,272.0,70.0,1,1.0,0,1.0,0,1.0,0,1.0,0,1.0
35257,'1',225.04,-23.256,160.1,-86.1,1.02,0,100.0,0.0,1.0,0.0,0.0,1.0,1,100.0,258.4,175.0,1,1.0,0,1.0,0,1.0,0,1.0,0,1.0
35257,'2',208.598,-23.256,160.1,-86.1,1.02,0,100.0,0.0,1.0,0.0,0.0,1.0,1,100.0,258.4,175.0,1,1.0,0,1.0,0,1.0,0,1.0,0,1.0
35259,'1',222.0,95.435,130.8,-90.0,1.02,0,100.0,0.0,1.0,0.0,0.0,1.0,1,100.0,270.0,30.0,1,1.0,0,1.0,0,1.0,0,1.0,0,1.0
35264,'1',185.0,9.657,114.7,-61.7,1.02,0,100.0,0.0,1.0,0.0,0.0,1.0,1,100.0,185.0,108.723,1,1.0,0,1.0,0,1.0,0,1.0,0,1.0
35264,'2',185.0,9.657,114.7,-61.7,1.02,0,100.0,0.0,1.0,0.0,0.0,1.0,1,100.0,185.0,108.571,1,1.0,0,1.0,0,1.0,0,1.0,0,1.0
35264,'3',185.0,9.657,114.7,-61.7,1.02,0,100.0,0.0,1.0,0.0,0.0,1.0,1,100.0,185.0,98.05,1,1.0,0,1.0,0,1.0,0,1.0,0,1.0
35264,'4',185.0,9.657,114.7,-61.7,1.02,0,100.0,0.0,1.0,0.0,0.0,1.0,1,100.0,185.0,98.05,1,1.0,0,1.0,0,1.0,0,1.0,0,1.0
35264,'5',214.32,9.657,136.6,-94.0,1.02,0,100.0,0.0,1.0,0.0,0.0,1.0,1,100.0,282.0,112.8,1,1.0,0,1.0,0,1.0,0,1.0,0,1.0
35264,'6',214.32,9.657,136.6,-94.0,1.02,0,100.0,0.0,1.0,0.0,0.0,1.0,1,100.0,282.0,112.8,1,1.0,0,1.0,0,1.0,0,1.0,0,1.0
35265,'1',183.1,1.391,88.7,-61.0,1.02,0,100.0,0.0,1.0,0.0,0.0,1.0,1,100.0,183.1,90.0,1,1.0,0,1.0,0,1.0,0,1.0,0,1.0
35265,'2',183.1,1.391,88.7,-61.0,1.02,0,100.0,0.0,1.0,0.0,0.0,1.0,1,100.0,183.1,90.0,1,1.0,0,1.0,0,1.0,0,1.0,0,1.0
35265,'3',183.1,1.391,88.7,-61.0,1.02,0,100.0,0.0,1.0,0.0,0.0,1.0,1,100.0,183.1,90.0,1,1.0,0,1.0,0,1.0,0,1.0,0,1.0
35266,'3',179.0,4.173,86.7,-59.7,1.02,0,100.0,0.0,1.0,0.0,0.0,1.0,1,100.0,179.0,90.0,1,1.0,0,1.0,0,1.0,0,1.0,0,1.0
35274,'1',3.0,0.024,16.2,-8.7,1.02,0,100.0,0.0,1.0,0.0,0.0,1.0,1,100.0,26.133,3.0,1,1.0,0,1.0,0,1.0,0,1.0,0,1.0
35274,'2',3.0,0.024,16.2,-8.7,1.02,0,100.0,0.0,1.0,0.0,0.0,1.0,1,100.0,26.133,3.0,1,1.0,0,1.0,0,1.0,0,1.0,0,1.0
35274,'3',3.0,0.024,16.2,-8.7,1.02,0,100.0,0.0,1.0,0.0,0.0,1.0,1,100.0,26.133,3.0,1,1.0,0,1.0,0,1.0,0,1.0,0,1.0
35276,'1',28.0,42.8,42.8,-23.0,1.02,0,100.0,0.0,1.0,0.0,0.0,1.0,1,100.0,69.0,28.0,1,1.0,0,1.0,0,1.0,0,1.0,0,1.0
35277,'1',63.9,7.783,32.7,-22.5,1.02,0,100.0,0.0,1.0,0.0,0.0,1.0,1,100.0,67.5,61.5,1,1.0,0,1.0,0,1.0,0,1.0,0,1.0
35277,'2',63.9,7.783,32.7,-22.5,1.02,0,100.0,0.0,1.0,0.0,0.0,1.0,1,100.0,67.5,61.5,1,1.0,0,1.0,0,1.0,0,1.0,0,1.0
35281,'1',51.5,24.9,24.9,-17.2,1.02,0,100.0,0.0,1.0,0.0,0.0,1.0,1,100.0,51.5,50.0,1,1.0,0,1.0,0,1.0,0,1.0,0,1.0
35285,'1',49.0,24.0,24.0,-15.6,1.02,0,100.0,0.0,1.0,0.0,0.0,1.0,1,100.0,49.0,45.0,1,1.0,0,1.0,0,1.0,0,1.0,0,1.0
35288,'1',40.5,-0.971,13.3,-13.3,1.02,0,100.0,0.0,1.0,0.0,0.0,1.0,1,100.0,40.5,34.0,1,1.0,0,1.0,0,1.0,0,1.0,0,1.0
35288,'2',40.5,-0.971,13.3,-13.3,1.02,0,100.0,0.0,1.0,0.0,0.0,1.0,1,100.0,40.5,34.0,1,1.0,0,1.0,0,1.0,0,1.0,0,1.0
35290,'1',6.433,4.117,4.117,-2.15,1.02,0,100.0,0.0,1.0,0.0,0.0,1.0,1,100.0,6.433,6.15,1,1.0,0,1.0,0,1.0,0,1.0,0,1.0
35290,'2',6.433,4.117,4.117,-2.15,1.02,0,100.0,0.0,1.0,0.0,0.0,1.0,1,100.0,6.433,6.15,1,1.0,0,1.0,0,1.0,0,1.0,0,1.0
35290,'3',6.433,4.117,4.117,-2.15,1.02,0,100.0,0.0,1.0,0.0,0.0,1.0,1,100.0,6.433,6.15,1,1.0,0,1.0,0,1.0,0,1.0,0,1.0
35290,'4',6.433,4.117,4.117,-2.15,1.02,0,100.0,0.0,1.0,0.0,0.0,1.0,1,100.0,6.433,6.15,1,1.0,0,1.0,0,1.0,0,1.0,0,1.0
35290,'5',6.433,4.117,4.117,-2.15,1.02,0,100.0,0.0,1.0,0.0,0.0,1.0,1,100.0,6.433,6.15,1,1.0,0,1.0,0,1.0,0,1.0,0,1.0
35290,'6',6.433,4.117,4.117,-2.15,1.02,0,100.0,0.0,1.0,0.0,0.0,1.0,1,100.0,6.433,6.15,1,1.0,0,1.0,0,1.0,0,1.0,0,1.0
35294,'1',33.7,4.168,11.1,-11.1,1.02,0,100.0,0.0,1.0,0.0,0.0,1.0,1,100.0,33.7,24.0,1,1.0,0,1.0,0,1.0,0,1.0,0,1.0
35294,'2',33.7,4.168,11.1,-11.1,1.02,0,100.0,0.0,1.0,0.0,0.0,1.0,1,100.0,33.7,24.0,1,1.0,0,1.0,0,1.0,0,1.0,0,1.0
35294,'3',33.7,4.168,11.1,-11.1,1.02,0,100.0,0.0,1.0,0.0,0.0,1.0,1,100.0,33.7,24.0,1,1.0,0,1.0,0,1.0,0,1.0,0,1.0
35295,'1',4.095,8.85,8.85,-5.25,1.02,0,100.0,0.0,1.0,0.0,0.0,1.0,1,100.0,15.75,4.095,1,1.0,0,1.0,0,1.0,0,1.0,0,1.0
35295,'2',4.095,8.85,8.85,-5.25,1.02,0,100.0,0.0,1.0,0.0,0.0,1.0,1,100.0,15.75,4.095,1,1.0,0,1.0,0,1.0,0,1.0,0,1.0
35296,'1',29.5,-3.283,14.3,-9.8,1.02,0,100.0,0.0,1.0,0.0,0.0,1.0,1,100.0,29.5,29.0,1,1.0,0,1.0,0,1.0,0,1.0,0,1.0
35296,'2',29.5,-3.283,14.3,-9.8,1.02,0,100.0,0.0,1.0,0.0,0.0,1.0,1,100.0,29.5,29.0,1,1.0,0,1.0,0,1.0,0,1.0,0,1.0
35296,'3',29.5,-3.283,14.3,-9.8,1.02,0,100.0,0.0,1.0,0.0,0.0,1.0,1,100.0,29.5,29.0,1,1.0,0,1.0,0,1.0,0,1.0,0,1.0
35296,'4',29.5,-3.283,14.3,-9.8,1.02,0,100.0,0.0,1.0,0.0,0.0,1.0,1,100.0,29.5,29.0,1,1.0,0,1.0,0,1.0,0,1.0,0,1.0
35296,'5',29.5,-3.283,14.3,-9.8,1.02,0,100.0,0.0,1.0,0.0,0.0,1.0,1,100.0,29.5,29.0,1,1.0,0,1.0,0,1.0,0,1.0,0,1.0
35296,'6',29.5,-3.283,14.3,-9.8,1.02,0,100.0,0.0,1.0,0.0,0.0,1.0,1,100.0,29.5,29.0,1,1.0,0,1.0,0,1.0,0,1.0,0,1.0
35297,'1',29.2,12.925,18.1,-9.7,1.02,0,100.0,0.0,1.0,0.0,0.0,1.0,1,100.0,29.2,12.0,1,1.0,0,1.0,0,1.0,0,1.0,0,1.0
35297,'2',29.2,12.925,18.1,-9.7,1.02,0,100.0,0.0,1.0,0.0,0.0,1.0,1,100.0,29.2,12.0,1,1.0,0,1.0,0,1.0,0,1.0,0,1.0
35297,'3',29.2,12.925,18.1,-9.7,1.02,0,100.0,0.0,1.0,0.0,0.0,1.0,1,100.0,29.2,12.0,1,1.0,0,1.0,0,1.0,0,1.0,0,1.0
35298,'1',28.8,13.9,13.9,-9.6,1.02,0,100.0,0.0,1.0,0.0,0.0,1.0,1,100.0,28.8,14.6,1,1.0,0,1.0,0,1.0,0,1.0,0,1.0
35298,'2',28.8,13.9,13.9,-9.6,1.02,0,100.0,0.0,1.0,0.0,0.0,1.0,1,100.0,28.8,12.9,1,1.0,0,1.0,0,1.0,0,1.0,0,1.0
35298,'3',28.8,13.9,13.9,-9.6,1.02,0,100.0,0.0,1.0,0.0,0.0,1.0,1,100.0,28.8,9.7,1,1.0,0,1.0,0,1.0,0,1.0,0,1.0
35298,'4',28.8,13.9,13.9,-9.6,1.02,0,100.0,0.0,1.0,0.0,0.0,1.0,1,100.0,28.8,9.7,1,1.0,0,1.0,0,1.0,0,1.0,0,1.0
35300,'1',25.0,6.035,14.7,-8.3,1.02,0,100.0,0.0,1.0,0.0,0.0,1.0,1,100.0,25.0,25.0,1,1.0,0,1.0,0,1.0,0,1.0,0,1.0
35300,'2',25.0,6.035,14.7,-8.3,1.02,0,100.0,0.0,1.0,0.0,0.0,1.0,1,100.0,25.0,25.0,1,1.0,0,1.0,0,1.0,0,1.0,0,1.0
35300,'3',25.0,6.035,14.7,-8.3,1.02,0,100.0,0.0,1.0,0.0,0.0,1.0,1,100.0,25.0,25.0,1,1.0,0,1.0,0,1.0,0,1.0,0,1.0
35300,'4',25.0,6.035,14.7,-8.3,1.02,0,100.0,0.0,1.0,0.0,0.0,1.0,1,100.0,25.0,25.0,1,1.0,0,1.0,0,1.0,0,1.0,0,1.0
35301,'1',25.0,7.294,12.0,-12.0,1.02,0,100.0,0.0,1.0,0.0,0.0,1.0,1,100.0,25.0,23.5,1,1.0,0,1.0,0,1.0,0,1.0,0,1.0
35301,'2',25.5,7.294,12.3,-12.3,1.02,0,100.0,0.0,1.0,0.0,0.0,1.0,1,100.0,25.5,23.5,1,1.0,0,1.0,0,1.0,0,1.0,0,1.0
35303,'1',24.3,11.8,11.8,-8.1,1.02,0,100.0,0.0,1.0,0.0,0.0,1.0,1,100.0,24.3,22.4,1,1.0,0,1.0,0,1.0,0,1.0,0,1.0
35303,'2',24.3,11.8,11.8,-8.1,1.02,0,100.0,0.0,1.0,0.0,0.0,1.0,1,100.0,24.3,22.3,1,1.0,0,1.0,0,1.0,0,1.0,0,1.0
35303,'3',24.3,11.8,11.8,-8.1,1.02,0,100.0,0.0,1.0,0.0,0.0,1.0,1,100.0,24.3,22.3,1,1.0,0,1.0,0,1.0,0,1.0,0,1.0
35344,'1',550.84,57.93,378.4,-260.5,1.02,0,100.0,0.0,1.0,0.0,0.0,1.0,1,100.0,781.4,205.0,1,1.0,0,1.0,0,1.0,0,1.0,0,1.0
35348,'1',216.18,0.0,0.0,0.0,1.02,0,100.0,0.0,1.0,0.0,0.0,1.0,1,100.0,270.0,0.9,1,1.0,0,1.0,0,1.0,0,1.0,0,1.0
35351,'1',179.3,-3.759,86.8,-59.8,1.02,0,100.0,0.0,1.0,0.0,0.0,1.0,1,100.0,179.3,99.0,1,1.0,0,1.0,0,1.0,0,1.0,0,1.0
35351,'2',179.3,-3.759,86.8,-59.8,1.02,0,100.0,0.0,1.0,0.0,0.0,1.0,1,100.0,179.3,99.0,1,1.0,0,1.0,0,1.0,0,1.0,0,1.0
35351,'3',179.3,-3.759,86.8,-59.8,1.02,0,100.0,0.0,1.0,0.0,0.0,1.0,1,100.0,179.3,99.0,1,1.0,0,1.0,0,1.0,0,1.0,0,1.0
35351,'4',122.0,-3.759,59.1,-40.7,1.02,0,100.0,0.0,1.0,0.0,0.0,1.0,1,100.0,122.0,54.0,1,1.0,0,1.0,0,1.0,0,1.0,0,1.0
35351,'6',122.0,-3.759,59.1,-40.7,1.02,0,100.0,0.0,1.0,0.0,0.0,1.0,1,100.0,122.0,54.0,1,1.0,0,1.0,0,1.0,0,1.0,0,1.0
35353,'1',178.5,3.78,86.5,-59.5,1.02,0,100.0,0.0,1.0,0.0,0.0,1.0,1,100.0,178.5,46.0,1,1.0,0,1.0,0,1.0,0,1.0,0,1.0
35353,'2',178.5,3.78,86.5,-59.5,1.02,0,100.0,0.0,1.0,0.0,0.0,1.0,1,100.0,178.5,46.0,1,1.0,0,1.0,0,1.0,0,1.0,0,1.0
35353,'3',178.5,3.78,86.5,-59.5,1.02,0,100.0,0.0,1.0,0.0,0.0,1.0,1,100.0,178.5,46.0,1,1.0,0,1.0,0,1.0,0,1.0,0,1.0
35353,'4',156.0,3.78,75.6,-52.0,1.02,0,100.0,0.0,1.0,0.0,0.0,1.0,1,100.0,156.0,39.0,1,1.0,0,1.0,0,1.0,0,1.0,0,1.0
35354,'1',176.6,49.122,109.4,-58.9,1.02,0,100.0,0.0,1.0,0.0,0.0,1.0,1,100.0,176.6,90.0,1,1.0,0,1.0,0,1.0,0,1.0,0,1.0
35354,'2',176.6,49.122,109.4,-58.9,1.02,0,100.0,0.0,1.0,0.0,0.0,1.0,1,100.0,176.6,90.0,1,1.0,0,1.0,0,1.0,0,1.0,0,1.0
35354,'3',198.1,49.122,122.8,-66.0,1.02,0,100.0,0.0,1.0,0.0,0.0,1.0,1,100.0,198.1,120.0,1,1.0,0,1.0,0,1.0,0,1.0,0,1.0
35355,'1',176.6,-14.008,109.4,-58.9,1.02,0,100.0,0.0,1.0,0.0,0.0,1.0,1,100.0,176.6,95.0,1,1.0,0,1.0,0,1.0,0,1.0,0,1.0
35355,'2',176.6,-14.008,109.4,-58.9,1.02,0,100.0,0.0,1.0,0.0,0.0,1.0,1,100.0,176.6,95.0,1,1.0,0,1.0,0,1.0,0,1.0,0,1.0
35356,'1',101.3,43.745,62.8,-33.8,1.02,0,100.0,0.0,1.0,0.0,0.0,1.0,1,100.0,101.3,70.0,1,1.0,0,1.0,0,1.0,0,1.0,0,1.0
35361,'4',76.6,0.0,0.0,0.0,1.02,0,100.0,0.0,1.0,0.0,0.0,1.0,1,100.0,76.6,50.0,1,1.0,0,1.0,0,1.0,0,1.0,0,1.0
35366,'1',47.0,2.162,29.1,-15.7,1.02,0,100.0,0.0,1.0,0.0,0.0,1.0,1,100.0,47.0,24.0,1,1.0,0,1.0,0,1.0,0,1.0,0,1.0
35366,'2',47.0,2.162,29.1,-15.7,1.02,0,100.0,0.0,1.0,0.0,0.0,1.0,1,100.0,47.0,24.0,1,1.0,0,1.0,0,1.0,0,1.0,0,1.0
35366,'3',47.0,2.162,29.1,-15.7,1.02,0,100.0,0.0,1.0,0.0,0.0,1.0,1,100.0,47.0,24.0,1,1.0,0,1.0,0,1.0,0,1.0,0,1.0
35367,'1',2.0,20.892,31.0,-21.3,1.02,0,100.0,0.0,1.0,0.0,0.0,1.0,1,100.0,64.0,2.0,1,1.0,0,1.0,0,1.0,0,1.0,0,1.0
35367,'2',5.0,20.892,34.5,-15.3,1.02,0,100.0,0.0,1.0,0.0,0.0,1.0,1,100.0,46.0,5.0,1,1.0,0,1.0,0,1.0,0,1.0,0,1.0
35368,'1',41.9,13.431,20.3,-14.0,1.02,0,100.0,0.0,1.0,0.0,0.0,1.0,1,100.0,41.9,21.0,1,1.0,0,1.0,0,1.0,0,1.0,0,1.0
35368,'2',17.0,13.431,28.5,-15.3,1.02,0,100.0,0.0,1.0,0.0,0.0,1.0,1,100.0,46.0,17.0,1,1.0,0,1.0,0,1.0,0,1.0,0,1.0
35368,'3',17.0,13.431,30.4,-16.3,1.02,0,100.0,0.0,1.0,0.0,0.0,1.0,1,100.0,49.0,17.0,1,1.0,0,1.0,0,1.0,0,1.0,0,1.0
35369,'1',30.0,67.4,67.4,-36.3,1.02,0,100.0,0.0,1.0,0.0,0.0,1.0,1,100.0,108.8,30.0,1,1.0,0,1.0,0,1.0,0,1.0,0,1.0
35369,'2',41.9,20.3,20.3,-14.0,1.02,0,100.0,0.0,1.0,0.0,0.0,1.0,1,100.0,41.9,21.0,1,1.0,0,1.0,0,1.0,0,1.0,0,1.0
35369,'3',324.98,165.282,358.2,-192.7,1.02,0,100.0,0.0,1.0,0.0,0.0,1.0,1,100.0,578.0,156.3,1,1.0,0,1.0,0,1.0,0,1.0,0,1.0
35371,'1',5.0,16.5,16.5,-10.7,1.02,0,100.0,0.0,1.0,0.0,0.0,1.0,1,100.0,32.2,5.0,1,1.0,0,1.0,0,1.0,0,1.0,0,1.0
75446,'1',80.0,-7.694,49.6,-26.7,1.02,0,100.0,0.0,1.0,0.0,0.0,1.0,1,100.0,80.0,66.0,1,1.0,0,1.0,0,1.0,0,1.0,0,1.0
75446,'10',269.2,-7.694,166.8,-89.7,1.02,0,100.0,0.0,1.0,0.0,0.0,1.0,1,100.0,269.2,110.0,1,1.0,0,1.0,0,1.0,0,1.0,0,1.0
75446,'11',299.2,-7.694,185.4,-99.7,1.02,0,100.0,0.0,1.0,0.0,0.0,1.0,1,100.0,299.2,110.0,1,1.0,0,1.0,0,1.0,0,1.0,0,1.0
75446,'2',80.0,-7.694,49.6,-26.7,1.02,0,100.0,0.0,1.0,0.0,0.0,1.0,1,100.0,80.0,66.0,1,1.0,0,1.0,0,1.0,0,1.0,0,1.0
75446,'3',80.0,-7.694,49.6,-26.7,1.02,0,100.0,0.0,1.0,0.0,0.0,1.0,1,100.0,80.0,66.0,1,1.0,0,1.0,0,1.0,0,1.0,0,1.0
75446,'4',80.0,-7.694,49.6,-26.7,1.02,0,100.0,0.0,1.0,0.0,0.0,1.0,1,100.0,80.0,66.0,1,1.0,0,1.0,0,1.0,0,1.0,0,1.0
75446,'5',80.0,-7.694,49.6,-26.7,1.02,0,100.0,0.0,1.0,0.0,0.0,1.0,1,100.0,80.0,66.0,1,1.0,0,1.0,0,1.0,0,1.0,0,1.0
75446,'6',80.0,-7.694,49.6,-26.7,1.02,0,100.0,0.0,1.0,0.0,0.0,1.0,1,100.0,80.0,66.0,1,1.0,0,1.0,0,1.0,0,1.0,0,1.0
75446,'7',80.0,-7.694,49.6,-26.7,1.02,0,100.0,0.0,1.0,0.0,0.0,1.0,1,100.0,80.0,66.0,1,1.0,0,1.0,0,1.0,0,1.0,0,1.0
75446,'8',80.0,-7.694,49.6,-26.7,1.02,0,100.0,0.0,1.0,0.0,0.0,1.0,1,100.0,80.0,66.0,1,1.0,0,1.0,0,1.0,0,1.0,0,1.0
75446,'9',80.0,-7.694,49.6,-26.7,1.02,0,100.0,0.0,1.0,0.0,0.0,1.0,1,100.0,80.0,66.0,1,1.0,0,1.0,0,1.0,0,1.0,0,1.0
75453,'1',222.0,47.542,202.5,-90.0,1.02,0,100.0,0.0,1.0,0.0,0.0,1.0,1,100.0,270.0,30.0,1,1.0,0,1.0,0,1.0,0,1.0,0,1.0
75457,'10',59.5,-3.453,28.8,-19.8,1.02,0,100.0,0.0,1.0,0.0,0.0,1.0,1,100.0,59.5,10.0,1,1.0,0,1.0,0,1.0,0,1.0,0,1.0
75457,'11',59.5,-3.453,28.8,-19.8,1.02,0,100.0,0.0,1.0,0.0,0.0,1.0,1,100.0,59.5,10.0,1,1.0,0,1.0,0,1.0,0,1.0,0,1.0
75457,'12',59.5,-3.453,28.8,-19.8,1.02,0,100.0,0.0,1.0,0.0,0.0,1.0,1,100.0,59.5,10.0,1,1.0,0,1.0,0,1.0,0,1.0,0,1.0
75457,'13',550.0,-3.453,266.4,-183.3,1.02,0,100.0,0.0,1.0,0.0,0.0,1.0,1,100.0,550.0,327.0,1,1.0,0,1.0,0,1.0,0,1.0,0,1.0
75457,'5',59.5,-3.453,28.8,-19.8,1.02,0,100.0,0.0,1.0,0.0,0.0,1.0,1,100.0,59.5,10.0,1,1.0,0,1.0,0,1.0,0,1.0,0,1.0
75457,'6',59.5,-3.453,28.8,-19.8,1.02,0,100.0,0.0,1.0,0.0,0.0,1.0,1,100.0,59.5,10.0,1,1.0,0,1.0,0,1.0,0,1.0,0,1.0
75457,'7',59.5,-3.453,28.8,-19.8,1.02,0,100.0,0.0,1.0,0.0,0.0,1.0,1,100.0,59.5,10.0,1,1.0,0,1.0,0,1.0,0,1.0,0,1.0
75457,'8',59.5,-3.453,28.8,-19.8,1.02,0,100.0,0.0,1.0,0.0,0.0,1.0,1,100.0,59.5,10.0,1,1.0,0,1.0,0,1.0,0,1.0,0,1.0
75457,'9',59.5,-3.453,28.8,-19.8,1.02,0,100.0,0.0,1.0,0.0,0.0,1.0,1,100.0,59.5,10.0,1,1.0,0,1.0,0,1.0,0,1.0,0,1.0
75462,'1',28.833,3.035,15.85,-9.617,1.02,0,100.0,0.0,1.0,0.0,0.0,1.0,1,100.0,28.833,28.688,1,1.0,0,1.0,0,1.0,0,1.0,0,1.0
75462,'2',28.833,3.035,15.85,-9.617,1.02,0,100.0,0.0,1.0,0.0,0.0,1.0,1,100.0,28.833,28.688,1,1.0,0,1.0,0,1.0,0,1.0,0,1.0
75462,'3',28.833,3.035,15.85,-9.617,1.02,0,100.0,0.0,1.0,0.0,0.0,1.0,1,100.0,28.833,28.688,1,1.0,0,1.0,0,1.0,0,1.0,0,1.0
75462,'4',28.833,3.035,15.85,-9.617,1.02,0,100.0,0.0,1.0,0.0,0.0,1.0,1,100.0,28.833,28.688,1,1.0,0,1.0,0,1.0,0,1.0,0,1.0
75462,'5',28.833,3.035,15.85,-9.617,1.02,0,100.0,0.0,1.0,0.0,0.0,1.0,1,100.0,28.833,28.688,1,1.0,0,1.0,0,1.0,0,1.0,0,1.0
75462,'6',28.833,3.035,15.85,-9.617,1.02,0,100.0,0.0,1.0,0.0,0.0,1.0,1,100.0,28.833,28.688,1,1.0,0,1.0,0,1.0,0,1.0,0,1.0
75466,'5',788.8,79.065,488.9,-262.9,1.02,0,100.0,0.0,1.0,0.0,0.0,1.0,1,100.0,788.8,500.0,1,1.0,0,1.0,0,1.0,0,1.0,0,1.0
75471,'1',90.5,5.339,43.8,-30.2,1.02,0,100.0,0.0,1.0,0.0,0.0,1.0,1,100.0,90.5,83.0,1,1.0,0,1.0,0,1.0,0,1.0,0,1.0
75471,'2',90.5,5.339,43.8,-30.2,1.02,0,100.0,0.0,1.0,0.0,0.0,1.0,1,100.0,90.5,83.0,1,1.0,0,1.0,0,1.0,0,1.0,0,1.0
75481,'1',50.2,9.439,16.5,-16.5,1.02,0,100.0,0.0,1.0,0.0,0.0,1.0,1,100.0,50.2,40.8,1,1.0,0,1.0,0,1.0,0,1.0,0,1.0
75481,'2',50.2,9.439,16.5,-16.5,1.02,0,100.0,0.0,1.0,0.0,0.0,1.0,1,100.0,50.2,40.8,1,1.0,0,1.0,0,1.0,0,1.0,0,1.0
75481,'3',50.2,9.439,16.5,-16.5,1.02,0,100.0,0.0,1.0,0.0,0.0,1.0,1,100.0,50.2,40.8,1,1.0,0,1.0,0,1.0,0,1.0,0,1.0
75481,'4',60.0,9.439,19.7,-19.7,1.02,0,100.0,0.0,1.0,0.0,0.0,1.0,1,100.0,60.0,40.8,1,1.0,0,1.0,0,1.0,0,1.0,0,1.0
75483,'1',42.7,20.349,20.7,-14.2,1.02,0,100.0,0.0,1.0,0.0,0.0,1.0,1,100.0,42.7,22.0,1,1.0,0,1.0,0,1.0,0,1.0,0,1.0
75483,'2',42.7,20.349,20.7,-14.2,1.02,0,100.0,0.0,1.0,0.0,0.0,1.0,1,100.0,42.7,22.0,1,1.0,0,1.0,0,1.0,0,1.0,0,1.0
75483,'3',42.7,20.349,20.7,-14.2,1.02,0,100.0,0.0,1.0,0.0,0.0,1.0,1,100.0,42.7,22.0,1,1.0,0,1.0,0,1.0,0,1.0,0,1.0
75487,'1',35.1,0.128,17.0,-11.7,1.02,0,100.0,0.0,1.0,0.0,0.0,1.0,1,100.0,35.1,15.0,1,1.0,0,1.0,0,1.0,0,1.0,0,1.0
75487,'2',36.0,0.128,17.4,-12.0,1.02,0,100.0,0.0,1.0,0.0,0.0,1.0,1,100.0,36.0,12.0,1,1.0,0,1.0,0,1.0,0,1.0,0,1.0
75487,'3',35.1,0.128,17.0,-11.7,1.02,0,100.0,0.0,1.0,0.0,0.0,1.0,1,100.0,35.1,15.0,1,1.0,0,1.0,0,1.0,0,1.0,0,1.0
75487,'4',35.1,0.128,17.0,-11.7,1.02,0,100.0,0.0,1.0,0.0,0.0,1.0,1,100.0,35.1,15.0,1,1.0,0,1.0,0,1.0,0,1.0,0,1.0
75487,'5',35.1,0.128,17.0,-11.7,1.02,0,100.0,0.0,1.0,0.0,0.0,1.0,1,100.0,35.1,14.0,1,1.0,0,1.0,0,1.0,0,1.0,0,1.0
75487,'6',35.1,0.128,17.0,-11.7,1.02,0,100.0,0.0,1.0,0.0,0.0,1.0,1,100.0,35.1,15.0,1,1.0,0,1.0,0,1.0,0,1.0,0,1.0
75487,'7',35.1,0.128,17.0,-11.7,1.02,0,100.0,0.0,1.0,0.0,0.0,1.0,1,100.0,35.1,14.0,1,1.0,0,1.0,0,1.0,0,1.0,0,1.0
75487,'8',35.1,0.128,17.0,-11.7,1.02,0,100.0,0.0,1.0,0.0,0.0,1.0,1,100.0,35.1,12.0,1,1.0,0,1.0,0,1.0,0,1.0,0,1.0
75487,'9',35.1,0.128,17.0,-11.7,1.02,0,100.0,0.0,1.0,0.0,0.0,1.0,1,100.0,35.1,15.0,1,1.0,0,1.0,0,1.0,0,1.0,0,1.0
75493,'1',54.0,-1.005,26.2,-18.0,1.02,0,100.0,0.0,1.0,0.0,0.0,1.0,1,100.0,54.0,51.2,1,1.0,0,1.0,0,1.0,0,1.0,0,1.0
75493,'10',29.2,-1.005,14.1,-9.7,1.02,0,100.0,0.0,1.0,0.0,0.0,1.0,1,100.0,29.2,18.0,1,1.0,0,1.0,0,1.0,0,1.0,0,1.0
75493,'11',29.2,-1.005,14.1,-9.7,1.02,0,100.0,0.0,1.0,0.0,0.0,1.0,1,100.0,29.2,18.0,1,1.0,0,1.0,0,1.0,0,1.0,0,1.0
75493,'12',29.2,-1.005,14.1,-9.7,1.02,0,100.0,0.0,1.0,0.0,0.0,1.0,1,100.0,29.2,18.0,1,1.0,0,1.0,0,1.0,0,1.0,0,1.0
75493,'13',29.2,-1.005,14.1,-9.7,1.02,0,100.0,0.0,1.0,0.0,0.0,1.0,1,100.0,29.2,18.0,1,1.0,0,1.0,0,1.0,0,1.0,0,1.0
75493,'14',29.2,-1.005,14.1,-9.7,1.02,0,100.0,0.0,1.0,0.0,0.0,1.0,1,100.0,29.2,18.0,1,1.0,0,1.0,0,1.0,0,1.0,0,1.0
75493,'15',29.2,-1.005,14.1,-9.7,1.02,0,100.0,0.0,1.0,0.0,0.0,1.0,1,100.0,29.2,18.0,1,1.0,0,1.0,0,1.0,0,1.0,0,1.0
75493,'16',29.2,-1.005,14.1,-9.7,1.02,0,100.0,0.0,1.0,0.0,0.0,1.0,1,100.0,29.2,18.0,1,1.0,0,1.0,0,1.0,0,1.0,0,1.0
75493,'17',36.0,-1.005,17.4,-12.0,1.02,0,100.0,0.0,1.0,0.0,0.0,1.0,1,100.0,36.0,20.0,1,1.0,0,1.0,0,1.0,0,1.0,0,1.0
75493,'18',23.0,-1.005,17.3,-7.7,1.02,0,100.0,0.0,1.0,0.0,0.0,1.0,1,100.0,23.0,21.0,1,1.0,0,1.0,0,1.0,0,1.0,0,1.0
75493,'19',23.0,-1.005,17.3,-7.7,1.02,0,100.0,0.0,1.0,0.0,0.0,1.0,1,100.0,23.0,21.0,1,1.0,0,1.0,0,1.0,0,1.0,0,1.0
75493,'2',54.0,-1.005,26.2,-18.0,1.02,0,100.0,0.0,1.0,0.0,0.0,1.0,1,100.0,54.0,50.0,1,1.0,0,1.0,0,1.0,0,1.0,0,1.0
75493,'20',23.0,-1.005,17.3,-7.7,1.02,0,100.0,0.0,1.0,0.0,0.0,1.0,1,100.0,23.0,21.0,1,1.0,0,1.0,0,1.0,0,1.0,0,1.0
75493,'21',23.0,-1.005,17.3,-7.7,1.02,0,100.0,0.0,1.0,0.0,0.0,1.0,1,100.0,23.0,21.0,1,1.0,0,1.0,0,1.0,0,1.0,0,1.0
75493,'3',54.0,-1.005,26.2,-18.0,1.02,0,100.0,0.0,1.0,0.0,0.0,1.0,1,100.0,54.0,50.0,1,1.0,0,1.0,0,1.0,0,1.0,0,1.0
75493,'4',25.2,-1.005,12.2,-8.4,1.02,0,100.0,0.0,1.0,0.0,0.0,1.0,1,100.0,25.2,22.0,1,1.0,0,1.0,0,1.0,0,1.0,0,1.0
75493,'5',29.2,-1.005,14.1,-9.7,1.02,0,100.0,0.0,1.0,0.0,0.0,1.0,1,100.0,29.2,22.0,1,1.0,0,1.0,0,1.0,0,1.0,0,1.0
75493,'6',25.2,-1.005,12.2,-8.4,1.02,0,100.0,0.0,1.0,0.0,0.0,1.0,1,100.0,25.2,18.0,1,1.0,0,1.0,0,1.0,0,1.0,0,1.0
75493,'7',30.9,-1.005,15.0,-10.3,1.02,0,100.0,0.0,1.0,0.0,0.0,1.0,1,100.0,30.9,20.0,1,1.0,0,1.0,0,1.0,0,1.0,0,1.0
75493,'8',30.9,-1.005,15.0,-10.3,1.02,0,100.0,0.0,1.0,0.0,0.0,1.0,1,100.0,30.9,20.0,1,1.0,0,1.0,0,1.0,0,1.0,0,1.0
75493,'9',30.9,-1.005,15.0,-10.3,1.02,0,100.0,0.0,1.0,0.0,0.0,1.0,1,100.0,30.9,20.0,1,1.0,0,1.0,0,1.0,0,1.0,0,1.0
75495,'1',20.5,2.954,6.7,-6.7,1.02,0,100.0,0.0,1.0,0.0,0.0,1.0,1,100.0,20.5,15.0,1,1.0,0,1.0,0,1.0,0,1.0,0,1.0
75495,'2',20.5,2.954,6.7,-6.7,1.02,0,100.0,0.0,1.0,0.0,0.0,1.0,1,100.0,20.5,15.0,1,1.0,0,1.0,0,1.0,0,1.0,0,1.0
75495,'3',20.5,2.954,6.7,-6.7,1.02,0,100.0,0.0,1.0,0.0,0.0,1.0,1,100.0,20.5,15.0,1,1.0,0,1.0,0,1.0,0,1.0,0,1.0
75495,'4',20.5,2.954,6.7,-6.7,1.02,0,100.0,0.0,1.0,0.0,0.0,1.0,1,100.0,20.5,15.0,1,1.0,0,1.0,0,1.0,0,1.0,0,1.0
75496,'1',50.0,-3.959,37.5,-16.7,1.02,0,100.0,0.0,1.0,0.0,0.0,1.0,1,100.0,50.0,48.8,1,1.0,0,1.0,0,1.0,0,1.0,0,1.0
75496,'2',50.0,-3.959,37.5,-16.7,1.02,0,100.0,0.0,1.0,0.0,0.0,1.0,1,100.0,50.0,48.8,1,1.0,0,1.0,0,1.0,0,1.0,0,1.0
75496,'3',50.0,-3.959,37.5,-16.7,1.02,0,100.0,0.0,1.0,0.0,0.0,1.0,1,100.0,50.0,48.8,1,1.0,0,1.0,0,1.0,0,1.0,0,1.0
75496,'4',20.0,-3.959,15.0,-6.7,1.02,0,100.0,0.0,1.0,0.0,0.0,1.0,1,100.0,20.0,19.5,1,1.0,0,1.0,0,1.0,0,1.0,0,1.0
75501,'1',185.5,6.404,115.0,-61.8,1.0,0,100.0,0.0,1.0,0.0,0.0,1.0,1,100.0,185.5,110.0,1,1.0,0,1.0,0,1.0,0,1.0,0,1.0
75501,'2',185.5,6.404,115.0,-61.8,1.0,0,100.0,0.0,1.0,0.0,0.0,1.0,1,100.0,185.5,110.0,1,1.0,0,1.0,0,1.0,0,1.0,0,1.0
75501,'3',185.5,6.404,115.0,-61.8,1.0,0,100.0,0.0,1.0,0.0,0.0,1.0,1,100.0,185.5,110.0,1,1.0,0,1.0,0,1.0,0,1.0,0,1.0
75501,'7',548.3,6.404,339.8,-182.8,1.0,0,100.0,0.0,1.0,0.0,0.0,1.0,1,100.0,548.3,165.0,1,1.0,0,1.0,0,1.0,0,1.0,0,1.0
75501,'8',548.3,6.404,339.8,-182.8,1.0,0,100.0,0.0,1.0,0.0,0.0,1.0,1,100.0,548.3,165.0,1,1.0,0,1.0,0,1.0,0,1.0,0,1.0
75503,'1',260.92,68.88,337.5,-181.5,1.02,0,100.0,0.0,1.0,0.0,0.0,1.0,1,100.0,544.6,190.0,1,1.0,0,1.0,0,1.0,0,1.0,0,1.0
75503,'2',545.8,68.88,379.2,-261.0,1.02,0,100.0,0.0,1.0,0.0,0.0,1.0,1,100.0,783.0,190.0,1,1.0,0,1.0,0,1.0,0,1.0,0,1.0
75508,'6',112.5,-7.606,54.5,-37.5,1.02,0,100.0,0.0,1.0,0.0,0.0,1.0,1,100.0,112.5,40.0,1,1.0,0,1.0,0,1.0,0,1.0,0,1.0
75531,'1',18.81,20.11,37.9,-22.0,1.03,0,100.0,0.0,1.0,0.0,0.0,1.0,1,100.0,66.0,18.81,1,1.0,0,1.0,0,1.0,0,1.0,0,1.0
75533,'1',36.0,23.094,36.6,-19.7,1.04,0,100.0,0.0,1.0,0.0,0.0,1.0,1,100.0,59.0,36.0,1,1.0,0,1.0,0,1.0,0,1.0,0,1.0
75533,'2',36.0,23.094,36.6,-19.7,1.04,0,100.0,0.0,1.0,0.0,0.0,1.0,1,100.0,59.0,36.0,1,1.0,0,1.0,0,1.0,0,1.0,0,1.0
75533,'3',36.0,23.094,36.6,-19.7,1.04,0,100.0,0.0,1.0,0.0,0.0,1.0,1,100.0,59.0,36.0,1,1.0,0,1.0,0,1.0,0,1.0,0,1.0
75533,'4',83.0,23.094,51.4,-27.7,1.04,0,100.0,0.0,1.0,0.0,0.0,1.0,1,100.0,83.0,53.0,1,1.0,0,1.0,0,1.0,0,1.0,0,1.0
75533,'5',83.5,23.094,51.7,-27.8,1.04,0,100.0,0.0,1.0,0.0,0.0,1.0,1,100.0,83.5,53.0,1,1.0,0,1.0,0,1.0,0,1.0,0,1.0
0 / END OF GENERATOR DATA BEGIN BRANCH DATA
35250,35260,'1',0.000150811,0.00194905,0.124388,1725.0,1745.0,1745.0,0.0,0.0,0.0,0.0,1,1,5.44,1,1.0,0,1.0,0,1.0,0,1.0
35250,36002,'1',0.000832099,0.00610363,0.211852,795.0,795.0,795.0,0.0,0.0,0.0,0.0,1,1,12.49,1,1.0,0,1.0,0,1.0,0,1.0
35250,36140,'1',0.000568878,0.0095087,0.621987,2056.0,2056.0,2056.0,0.0,0.0,0.0,0.0,1,1,26.82,1,1.0,0,1.0,0,1.0,0,1.0
35250,36372,'1',0.000177755,0.00247061,0.157639,1813.0,1813.0,1813.0,0.0,0.0,0.0,0.0,1,1,6.89,1,1.0,0,1.0,0,1.0,0,1.0
35251,35650,'1',0.000761,0.014125,0.935594,2226.0,2226.0,2226.0,0.0,0.0,0.0,0.0,1,1,40.08,1,1.0,0,1.0,0,1.0,0,1.0
35251,35799,'1',0.000182,0.001332,0.04622,1795.0,1795.0,1795.0,0.0,0.0,0.0,0.0,1,1,2.73,1,1.0,0,1.0,0,1.0,0,1.0
35252,35927,'1',9e-05,0.001157,0.086753,2598.0,2598.0,2598.0,0.0,0.0,0.0,0.0,1,1,3.49,1,1.0,0,1.0,0,1.0,0,1.0
35252,35953,'1',0.000504,0.007407,0.288028,2158.0,2158.0,2158.0,0.0,0.0,0.0,0.0,1,1,16.04,1,1.0,0,1.0,0,1.0,0,1.0
35252,36583,'1',0.000318,0.002334,0.081,1695.0,1695.0,1695.0,0.0,0.0,0.0,0.0,1,1,4.78,1,1.0,0,1.0,0,1.0,0,1.0
35253,35612,'1',0.000340265,0.00249547,0.0865925,795.0,795.0,795.0,0.0,0.0,0.0,0.0,1,1,5.11,1,1.0,0,1.0,0,1.0,0,1.0
35254,35441,'1',0.000382434,0.00638885,0.417572,2056.0,2056.0,2056.0,0.0,0.0,0.0,0.0,1,1,18.01,1,1.0,0,1.0,0,1.0,0,1.0
35254,36253,'1',6.38767e-05,0.0018319,0.127441,3031.0,3031.0,3031.0,0.0,0.0,0.0,0.0,1,1,5.33,1,1.0,0,1.0,0,1.0,0,1.0
35254,36254,'1',0.000354548,0.00260022,0.090228,795.0,795.0,795.0,0.0,0.0,0.0,0.0,1,1,5.32,1,1.0,0,1.0,0,1.0,0,1.0
35255,36439,'1',0.000124363,0.00210112,0.0833872,1392.0,1392.0,1392.0,0.0,0.0,0.0,0.0,1,1,4.59,1,1.0,0,1.0,0,1.0,0,1.0
35255,36483,'1',8.59941e-05,0.00145286,0.0576583,1492.0,1495.0,1495.0,0.0,0.0,0.0,0.0,1,1,3.17,1,1.0,0,1.0,0,1.0,0,1.0
35256,35555,'1',0.00234781,0.0172483,0.600016,795.0,795.0,795.0,0.0,0.0,0.0,0.0,1,1,35.35,1,1.0,0,1.0,0,1.0,0,1.0
35256,35768,'1',0.00140625,0.0103194,0.35839,795.0,795.0,795.0,0.0,0.0,0.0,0.0,1,1,21.13,1,1.0,0,1.0,0,1.0,0,1.0
35257,35570,'1',0.00100008,0.00692294,0.270403,795.0,795.0,795.0,0.0,0.0,0.0,0.0,1,1,15.02,1,1.0,0,1.0,0,1.0,0,1.0
35257,36471,'1',0.00366664,0.0270069,0.943018,795.0,795.0,795.0,0.0,0.0,0.0,0.0,1,1,55.49,1,1.0,0,1.0,0,1.0,0,1.0
35257,36515,'1',0.000183274,0.0012683,0.0495164,795.0,795.0,795.0,0.0,0.0,0.0,0.0,1,1,2.75,1,1.0,0,1.0,0,1.0,0,1.0
35257,36517,'1',0.000964483,0.00707523,0.245602,795.0,795.0,795.0,0.0,0.0,0.0,0.0,1,1,14.48,1,1.0,0,1.0,0,1.0,0,1.0
35258,36270,'1',0.000563127,0.00389733,0.152178,795.0,795.0,795.0,0.0,0.0,0.0,0.0,1,1,8.45,1,1.0,0,1.0,0,1.0,0,1.0
35258,36282,'1',0.000178415,0.00123467,0.0482035,795.0,795.0,795.0,0.0,0.0,0.0,0.0,1,1,2.68,1,1.0,0,1.0,0,1.0,0,1.0
35259,36363,'1',0.00142425,0.0178051,0.00778544,388.0,388.0,388.0,0.0,0.0,0.0,0.0,1,1,4.06,1,1.0,0,1.0,0,1.0,0,1.0
35259,75803,'1',0.00379202,0.028179,0.0107464,261.0,261.0,261.0,0.0,0.0,0.0,0.0,1,1,6.01,1,1.0,0,1.0,0,1.0,0,1.0
35259,75927,'1',0.00038155,0.00530351,0.00291475,567.0,567.0,567.0,0.0,0.0,0.0,0.0,1,1,1.37,1,1.0,0,1.0,0,1.0,0,1.0
35260,36372,'1',5.01821e-05,0.000804285,0.0364889,1513.0,1531.0,1531.0,0.0,0.0,0.0,0.0,1,1,1.88,1,1.0,0,1.0,0,1.0,0,1.0
35261,35509,'1',0.015104,0.154089,0.354401,1366.0,1366.0,1366.0,0.0,0.0,0.0,0.0,1,1,81.07,1,1.0,0,1.0,0,1.0,0,1.0
35261,36424,'1',0.008505,0.053922,0.113089,1366.0,1366.0,1366.0,0.0,0.0,0.0,0.0,1,1,27.06,1,1.0,0,1.0,0,1.0,0,1.0
35262,35594,'1',0.000273541,0.00317949,0.134706,1113.0,1113.0,1113.0,0.0,0.0,0.0,0.0,1,1,7.17,1,1.0,0,1.0,0,1.0,0,1.0
35262,35602,'1',0.00029088,0.00255715,0.103085,933.0,933.0,933.0,0.0,0.0,0.0,0.0,1,1,5.63,1,1.0,0,1.0,0,1.0,0,1.0
35263,35512,'1',0.00349689,0.0259856,0.0099098,261.0,261.0,261.0,0.0,0.0,0.0,0.0,1,1,5.54,1,1.0,0,1.0,0,1.0,0,1.0
35263,35515,'1',0.00569399,0.0227869,0.00769752,175.0,175.0,175.0,0.0,0.0,0.0,0.0,1,1,4.61,1,1.0,0,1.0,0,1.0,0,1.0
35263,35529,'1',0.00184376,0.0199598,0.00840049,347.0,347.0,347.0,0.0,0.0,0.0,0.0,1,1,4.47,1,1.0,0,1.0,0,1.0,0,1.0
35263,36490,'1',0.012881,0.0420154,0.0111553,142.0,142.0,142.0,0.0,0.0,0.0,0.0,1,1,7.49,1,1.0,0,1.0,0,1.0,0,1.0
35263,36493,'1',0.016448,0.038182,0.011633,218.0,218.0,218.0,0.0,0.0,0.0,0.0,1,1,7.31,1,1.0,0,1.0,0,1.0,0,1.0
35264,36361,'1',0.00132066,0.0171893,0.0383339,579.0,579.0,579.0,0.0,0.0,0.0,0.0,1,1,8.9,1,1.0,0,1.0,0,1.0,0,1.0
35264,75546,'1',0.000405805,0.00729515,0.0146678,697.0,697.0,697.0,0.0,0.0,0.0,0.0,1,1,3.58,1,1.0,0,1.0,0,1.0,0,1.0
35264,75902,'1',0.00452141,0.029356,0.0584947,366.0,366.0,366.0,0.0,0.0,0.0,0.0,1,1,14.36,1,1.0,0,1.0,0,1.0,0,1.0
35265,35266,'1',1e-05,6.8e-05,0.002488,1795.0,1795.0,1795.0,0.0,0.0,0.0,0.0,1,1,0.14,1,1.0,0,1.0,0,1.0,0,1.0
35265,35547,'1',0.000675777,0.00711198,0.29594,1028.0,1028.0,1028.0,0.0,0.0,0.0,0.0,1,1,15.91,1,1.0,0,1.0,0,1.0,0,1.0
35266,35432,'1',0.000588114,0.00683769,0.289806,1113.0,1113.0,1113.0,0.0,0.0,0.0,0.0,1,1,15.43,1,1.0,0,1.0,0,1.0,0,1.0
35266,35664,'1',0.00107227,0.00786647,0.273096,795.0,795.0,795.0,0.0,0.0,0.0,0.0,1,1,16.1,1,1.0,0,1.0,0,1.0,0,1.0
35267,35535,'1',0.000572299,0.00639342,0.235543,1028.0,1028.0,1028.0,0.0,0.0,0.0,0.0,1,1,13.47,1,1.0,0,1.0,0,1.0,0,1.0
35267,36031,'1',0.00039414,0.00272765,0.106498,795.0,795.0,795.0,0.0,0.0,0.0,0.0,1,1,5.92,1,1.0,0,1.0,0,1.0,0,1.0
35268,35806,'1',0.000359929,0.004368,0.18682,1147.0,1147.0,1147.0,0.0,0.0,0.0,0.0,1,1,9.91,1,1.0,0,1.0,0,1.0,0,1.0
35268,36170,'1',0.00180109,0.0241358,0.930807,1177.0,1177.0,1177.0,0.0,0.0,0.0,0.0,1,1,52.27,1,1.0,0,1.0,0,1.0,0,1.0
35269,35602,'1',0.00517838,0.0361556,1.42977,795.0,795.0,795.0,0.0,0.0,0.0,0.0,1,1,79.07,1,1.0,0,1.0,0,1.0,0,1.0
35269,36583,'1',0.000154,0.001531,0.05534,1288.0,1288.0,1288.0,0.0,0.0,0.0,0.0,1,1,3.2,1,1.0,0,1.0,0,1.0,0,1.0
35270,35273,'1',5.94931e-05,0.0004363,0.0151388,795.0,795.0,795.0,0.0,0.0,0.0,0.0,1,1,0.89,1,1.0,0,1.0,0,1.0,0,1.0
35270,36589,'1',0.00075701,0.00555263,0.192716,795.0,795.0,795.0,0.0,0.0,0.0,0.0,1,1,11.36,1,1.0,0,1.0,0,1.0,0,1.0
35270,36590,'1',2.03418e-05,0.000783785,0.0676148,4547.0,4547.0,4547.0,0.0,0.0,0.0,0.0,1,1,2.55,1,1.0,0,1.0,0,1.0,0,1.0
35271,35431,'1',0.000474531,0.00339214,0.124016,795.0,795.0,795.0,0.0,0.0,0.0,0.0,1,1,7.12,1,1.0,0,1.0,0,1.0,0,1.0
35271,35612,'1',0.00399549,0.0294537,1.0297,795.0,795.0,795.0,0.0,0.0,0.0,0.0,1,1,60.57,1,1.0,0,1.0,0,1.0,0,1.0
35272,36006,'1',0.0119685,0.0789642,0.153238,366.0,366.0,366.0,0.0,0.0,0.0,0.0,1,1,38.16,1,1.0,0,1.0,0,1.0,0,1.0
35272,36575,'1',0.00114468,0.00772336,0.0142206,366.0,366.0,366.0,0.0,0.0,0.0,0.0,1,1,3.63,1,1.0,0,1.0,0,1.0,0,1.0
35273,36254,'1',0.000834446,0.00596585,0.218158,795.0,795.0,795.0,0.0,0.0,0.0,0.0,1,1,12.53,1,1.0,0,1.0,0,1.0,0,1.0
35274,36148,'1',0.0251108,0.0631343,0.0163595,118.0,118.0,118.0,0.0,0.0,0.0,0.0,1,1,11.17,1,1.0,0,1.0,0,1.0,0,1.0
35274,36489,'1',0.047645,0.122563,0.0303744,118.0,118.0,118.0,0.0,0.0,0.0,0.0,1,1,21.21,1,1.0,0,1.0,0,1.0,0,1.0
35274,75594,'1',0.0248513,0.0576974,0.0175814,118.0,118.0,118.0,0.0,0.0,0.0,0.0,1,1,11.05,1,1.0,0,1.0,0,1.0,0,1.0
35275,35701,'1',0.00387771,0.0160101,0.00378792,159.0,159.0,159.0,0.0,0.0,0.0,0.0,1,1,2.71,1,1.0,0,1.0,0,1.0,0,1.0
35275,75913,'1',0.0120306,0.0658546,0.0205958,205.0,205.0,205.0,0.0,0.0,0.0,0.0,1,1,12.79,1,1.0,0,1.0,0,1.0,0,1.0
35276,35717,'1',0.00301914,0.00700817,0.00213504,118.0,118.0,118.0,0.0,0.0,0.0,0.0,1,1,1.34,1,1.0,0,1.0,0,1.0,0,1.0
35276,35718,'1',0.00528406,0.0132828,0.00344111,118.0,118.0,118.0,0.0,0.0,0.0,0.0,1,1,2.35,1,1.0,0,1.0,0,1.0,0,1.0
35276,35730,'1',0.00337672,0.0118152,0.00391544,159.0,159.0,159.0,0.0,0.0,0.0,0.0,1,1,2.36,1,1.0,0,1.0,0,1.0,0,1.0
35276,35740,'1',0.0133914,0.0359531,0.00814864,118.0,118.0,118.0,0.0,0.0,0.0,0.0,1,1,5.95,1,1.0,0,1.0,0,1.0,0,1.0
35276,35746,'1',0.00113186,0.00396034,0.00131241,159.0,159.0,159.0,0.0,0.0,0.0,0.0,1,1,0.79,1,1.0,0,1.0,0,1.0,0,1.0
35277,36410,'1',0.0426584,0.099079,0.0302042,118.0,118.0,118.0,0.0,0.0,0.0,0.0,1,1,18.98,1,1.0,0,1.0,0,1.0,0,1.0
35277,75602,'1',0.0143636,0.0502653,0.0166606,159.0,159.0,159.0,0.0,0.0,0.0,0.0,1,1,10.02,1,1.0,0,1.0,0,1.0,0,1.0
35278,36589,'1',0.000647036,0.00462556,0.169125,795.0,795.0,795.0,0.0,0.0,0.0,0.0,1,1,9.71,1,1.0,0,1.0,0,1.0,0,1.0
35279,35435,'1',0.0188642,0.0437934,0.0133434,118.0,118.0,118.0,0.0,0.0,0.0,0.0,1,1,8.39,1,1.0,0,1.0,0,1.0,0,1.0
35279,75649,'1',0.0122367,0.0343267,0.00883596,128.0,128.0,128.0,0.0,0.0,0.0,0.0,1,1,6.03,1,1.0,0,1.0,0,1.0,0,1.0
35280,36523,'1',0.0137595,0.0319411,0.00973149,118.0,118.0,118.0,0.0,0.0,0.0,0.0,1,1,6.12,1,1.0,0,1.0,0,1.0,0,1.0
35281,36032,'1',0.002243,0.005814,0.001759,228.0,228.0,228.0,0.0,0.0,0.0,0.0,1,1,1.11,1,1.0,0,1.0,0,1.0,0,1.0
35281,36419,'1',0.0173426,0.0486528,0.0125245,128.0,128.0,128.0,0.0,0.0,0.0,0.0,1,1,8.55,1,1.0,0,1.0,0,1.0,0,1.0
35282,36300,'1',0.00204859,0.0150437,0.523002,795.0,795.0,795.0,0.0,0.0,0.0,0.0,1,1,30.82,1,1.0,0,1.0,0,1.0,0,1.0
35282,36519,'1',0.000503418,0.00369217,0.128126,795.0,795.0,795.0,0.0,0.0,0.0,0.0,1,1,7.56,1,1.0,0,1.0,0,1.0,0,1.0
35283,36508,'1',0.0050614,0.0135881,0.00307953,118.0,118.0,118.0,0.0,0.0,0.0,0.0,1,1,2.25,1,1.0,0,1.0,0,1.0,0,1.0
35283,36510,'1',0.000427507,0.00116391,0.00025642,118.0,118.0,118.0,0.0,0.0,0.0,0.0,1,1,0.19,1,1.0,0,1.0,0,1.0,0,1.0
35284,35565,'1',0.00725927,0.0471538,0.0940215,366.0,366.0,366.0,0.0,0.0,0.0,0.0,1,1,23.08,1,1.0,0,1.0,0,1.0,0,1.0
35284,36292,'1',0.00323571,0.0218348,0.0402108,366.0,366.0,366.0,0.0,0.0,0.0,0.0,1,1,10.28,1,1.0,0,1.0,0,1.0,0,1.0
35285,36537,'1',0.0118066,0.0413111,0.000855633,85.0,85.0,129.0,0.0,0.0,0.0,0.0,1,1,2.06,1,1.0,0,1.0,0,1.0,0,1.0
35285,36538,'1',0.0765036,0.177604,0.00338214,59.0,59.0,59.0,0.0,0.0,0.0,0.0,1,1,8.5,1,1.0,0,1.0,0,1.0,0,1.0
35286,35939,'1',0.00524786,0.0368112,0.0627045,366.0,366.0,366.0,0.0,0.0,0.0,0.0,1,1,16.68,1,1.0,0,1.0,0,1.0,0,1.0
35286,36495,'1',0.00293262,0.019789,0.0364418,366.0,366.0,366.0,0.0,0.0,0.0,0.0,1,1,9.31,1,1.0,0,1.0,0,1.0,0,1.0
35286,75953,'1',0.00125009,0.0152311,0.0568203,834.0,834.0,834.0,0.0,0.0,0.0,0.0,1,1,10.25,1,1.0,0,1.0,0,1.0,0,1.0
35287,35711,'1',0.00555785,0.0194472,0.00644476,159.0,159.0,159.0,0.0,0.0,0.0,0.0,1,1,3.88,1,1.0,0,1.0,0,1.0,0,1.0
35287,75667,'1',0.0175592,0.0572792,0.0152093,142.0,142.0,142.0,0.0,0.0,0.0,0.0,1,1,10.21,1,1.0,0,1.0,0,1.0,0,1.0
35288,36063,'1',0.0720318,0.167221,0.00318436,59.0,59.0,59.0,0.0,0.0,0.0,0.0,1,1,8.01,1,1.0,0,1.0,0,1.0,0,1.0
35288,36069,'1',0.116319,0.352734,0.00390637,59.0,59.0,59.0,0.0,0.0,0.0,0.0,1,1,12.93,1,1.0,0,1.0,0,1.0,0,1.0
35288,75573,'1',0.254592,0.694011,0.00957051,59.0,59.0,59.0,0.0,0.0,0.0,0.0,1,1,28.36,1,1.0,0,1.0,0,1.0,0,1.0
35288,75660,'1',0.038692,0.116462,0.0022773,71.0,71.0,71.0,0.0,0.0,0.0,0.0,1,1,5.62,1,1.0,0,1.0,0,1.0,0,1.0
35288,75993,'1',0.128505,0.298392,0.00568368,59.0,59.0,59.0,0.0,0.0,0.0,0.0,1,1,14.29,1,1.0,0,1.0,0,1.0,0,1.0
35288,75995,'1',0.0618213,0.16598,0.00235123,59.0,59.0,59.0,0.0,0.0,0.0,0.0,1,1,6.87,1,1.0,0,1.0,0,1.0,0,1.0
35290,75589,'1',0.0947827,0.331779,0.00687542,80.0,80.0,80.0,0.0,0.0,0.0,0.0,1,1,16.54,1,1.0,0,1.0,0,1.0,0,1.0
35290,75797,'1',0.0336873,0.140025,0.00204295,80.0,80.0,80.0,0.0,0.0,0.0,0.0,1,1,5.88,1,1.0,0,1.0,0,1.0,0,1.0
35290,75798,'1',0.0676824,0.17543,0.00331737,64.0,64.0,64.0,0.0,0.0,0.0,0.0,1,1,8.34,1,1.0,0,1.0,0,1.0,0,1.0
35292,36288,'1',0.000380458,0.00240968,0.00504621,366.0,366.0,366.0,0.0,0.0,0.0,0.0,1,1,1.21,1,1.0,0,1.0,0,1.0,0,1.0
35293,35599,'1',0.000502388,0.00347689,0.135757,795.0,795.0,795.0,0.0,0.0,0.0,0.0,1,1,7.54,1,1.0,0,1.0,0,1.0,0,1.0
35293,36002,'1',0.000351857,0.00258048,0.0895429,795.0,795.0,795.0,0.0,0.0,0.0,0.0,1,1,5.28,1,1.0,0,1.0,0,1.0,0,1.0
35294,36592,'1',0.00741655,0.0172159,0.00524493,118.0,118.0,118.0,0.0,0.0,0.0,0.0,1,1,3.3,1,1.0,0,1.0,0,1.0,0,1.0
35294,36594,'1',0.0183861,0.0643483,0.0213312,166.0,166.0,166.0,0.0,0.0,0.0,0.0,1,1,12.83,1,1.0,0,1.0,0,1.0,0,1.0
35295,36144,'1',0.0259571,0.0602659,0.0183644,118.0,118.0,118.0,0.0,0.0,0.0,0.0,1,1,11.54,1,1.0,0,1.0,0,1.0,0,1.0
35295,36149,'1',0.0104261,0.0242023,0.0073735,118.0,118.0,118.0,0.0,0.0,0.0,0.0,1,1,4.64,1,1.0,0,1.0,0,1.0,0,1.0
35295,36488,'1',0.0302902,0.0813414,0.0184408,121.0,121.0,121.0,0.0,0.0,0.0,0.0,1,1,13.47,1,1.0,0,1.0,0,1.0,0,1.0
35296,75590,'1',0.0115048,0.0504108,0.0173434,185.0,185.0,185.0,0.0,0.0,0.0,0.0,1,1,10.23,1,1.0,0,1.0,0,1.0,0,1.0
35296,75982,'1',0.0344867,0.103864,0.0325188,142.0,142.0,142.0,0.0,0.0,0.0,0.0,1,1,20.07,1,1.0,0,1.0,0,1.0,0,1.0
35297,35542,'1',0.00398823,0.012004,0.00375542,142.0,142.0,142.0,0.0,0.0,0.0,0.0,1,1,2.32,1,1.0,0,1.0,0,1.0,0,1.0
35297,35543,'1',0.0166971,0.0502628,0.0157273,142.0,142.0,142.0,0.0,0.0,0.0,0.0,1,1,9.71,1,1.0,0,1.0,0,1.0,0,1.0
35297,35740,'1',0.0152392,0.0620221,0.015114,159.0,159.0,159.0,0.0,0.0,0.0,0.0,1,1,10.63,1,1.0,0,1.0,0,1.0,0,1.0
35298,36161,'1',0.00590608,0.0206658,0.00684861,159.0,159.0,159.0,0.0,0.0,0.0,0.0,1,1,4.12,1,1.0,0,1.0,0,1.0,0,1.0
35298,36167,'1',0.0178931,0.0538642,0.0168547,142.0,142.0,142.0,0.0,0.0,0.0,0.0,1,1,10.4,1,1.0,0,1.0,0,1.0,0,1.0
35299,75699,'1',0.0082754,0.0461698,0.000737035,96.0,96.0,96.0,0.0,0.0,0.0,0.0,1,1,2.02,1,1.0,0,1.0,0,1.0,0,1.0
35299,75724,'1',0.00158214,0.00476197,9.31097e-05,71.0,71.0,71.0,0.0,0.0,0.0,0.0,1,1,0.23,1,1.0,0,1.0,0,1.0,0,1.0
35300,35701,'1',0.00928843,0.0215613,0.00656884,118.0,118.0,118.0,0.0,0.0,0.0,0.0,1,1,4.13,1,1.0,0,1.0,0,1.0,0,1.0
35301,35696,'1',0.0115294,0.034704,0.0108579,142.0,142.0,142.0,0.0,0.0,0.0,0.0,1,1,6.7,1,1.0,0,1.0,0,1.0,0,1.0
35302,36421,'1',0.016133,0.048563,0.015195,342.0,342.0,342.0,0.0,0.0,0.0,0.0,1,1,9.38,1,1.0,0,1.0,0,1.0,0,1.0
35302,75945,'1',0.008503,0.037254,0.012816,233.0,233.0,233.0,0.0,0.0,0.0,0.0,1,1,7.56,1,1.0,0,1.0,0,1.0,0,1.0
35303,35515,'1',0.0142866,0.0555866,0.0148493,159.0,159.0,159.0,0.0,0.0,0.0,0.0,1,1,9.97,1,1.0,0,1.0,0,1.0,0,1.0
35303,35528,'1',0.00339168,0.00879014,0.00265921,128.0,128.0,128.0,0.0,0.0,0.0,0.0,1,1,1.67,1,1.0,0,1.0,0,1.0,0,1.0
35303,35735,'1',0.0185798,0.0559321,0.017502,142.0,142.0,142.0,0.0,0.0,0.0,0.0,1,1,10.8,1,1.0,0,1.0,0,1.0,0,1.0
35304,35597,'1',0.000239659,0.00171309,0.0626254,795.0,795.0,795.0,0.0,0.0,0.0,0.0,1,1,3.6,1,1.0,0,1.0,0,1.0,0,1.0
...